
     RDKit          3D

 95100  0  0  0  0  0  0  0  0999 V2000
   -9.5890    8.2810   -4.8750 C   0  0  0  0  0  0  0  0  0  0  0  0
   -8.2570    7.8390   -4.8300 O   0  0  0  0  0  0  0  0  0  0  0  0
   -7.7730    7.2590   -3.6740 C   0  0  0  0  0  0  0  0  0  0  0  0
   -8.6120    7.1130   -2.5950 C   0  0  0  0  0  0  0  0  0  0  0  0
   -8.1370    6.5370   -1.4420 C   0  0  0  0  0  0  0  0  0  0  0  0
   -6.8290    6.1120   -1.3780 C   0  0  0  0  0  0  0  0  0  0  0  0
   -5.9740    6.2570   -2.4650 C   0  0  0  0  0  0  0  0  0  0  0  0
   -6.4380    6.8280   -3.6140 C   0  0  0  0  0  0  0  0  0  0  0  0
   -5.6390    7.0380   -4.8300 C   0  0  0  0  0  0  0  0  0  0  0  0
   -4.6240    8.1700   -4.6940 C   0  0  0  0  0  0  0  0  0  0  0  0
   -3.4900    7.6340   -3.8760 C   0  0  0  0  0  0  0  0  0  0  0  0
   -2.6050    6.8490   -4.7060 N   0  0  0  0  0  4  0  0  0  0  0  0
   -1.4180    7.4550   -5.1100 C   0  0  0  0  0  0  0  0  0  0  0  0
   -1.2400    8.3390   -6.2290 C   0  0  2  0  0  0  0  0  0  0  0  0
   -0.1660    8.0490   -7.0840 O   0  0  0  0  0  0  0  0  0  0  0  0
   -1.4790    9.7980   -6.2170 C   0  0  0  0  0  0  0  0  0  0  0  0
   -2.1160   10.3750   -7.3750 N   0  0  0  0  0  0  0  0  0  0  0  0
   -3.4780   10.4440   -7.3770 N   0  0  0  0  0  0  0  0  0  0  0  0
   -3.9310   11.0270   -8.4550 C   0  0  0  0  0  0  0  0  0  0  0  0
   -5.3120   11.3010   -8.8230 C   0  0  0  0  0  0  0  0  0  0  0  0
   -5.6370   11.8560  -10.0550 C   0  0  0  0  0  0  0  0  0  0  0  0
   -6.9350   12.0990  -10.3730 C   0  0  0  0  0  0  0  0  0  0  0  0
   -7.9610   11.8040   -9.4870 C   0  0  0  0  0  0  0  0  0  0  0  0
   -9.3600   12.0890   -9.8780 C   0  0  0  0  0  0  0  0  0  0  0  0
   -9.4210   12.8560  -11.0100 F   0  0  0  0  0  0  0  0  0  0  0  0
  -10.0090   12.8070   -8.8790 F   0  0  0  0  0  0  0  0  0  0  0  0
  -10.0620   10.9080  -10.1480 F   0  0  0  0  0  0  0  0  0  0  0  0
   -7.6820   11.2560   -8.2590 C   0  0  0  0  0  0  0  0  0  0  0  0
   -8.9980   10.8990   -7.1640 S   0  0  0  0  0  0  0  0  0  0  0  0
   -9.5500   12.2140   -6.1160 C   0  0  0  0  0  0  0  0  0  0  0  0
   -8.5590   12.7870   -5.1700 C   0  0  0  0  0  0  0  0  0  0  0  0
   -8.6370   12.2370   -3.8390 N   0  0  0  0  0  4  0  0  0  0  0  0
   -7.7500   11.1360   -3.5990 C   0  0  0  0  0  0  0  0  0  0  0  0
   -7.5770   11.0470   -2.0760 C   0  0  0  0  0  0  0  0  0  0  0  0
   -8.9420   11.2080   -1.4300 C   0  0  0  0  0  0  0  0  0  0  0  0
  -10.0560   10.9040   -2.4100 C   0  0  0  0  0  0  0  0  0  0  0  0
  -10.0010   11.7600   -3.6430 C   0  0  0  0  0  0  0  0  0  0  0  0
   -6.3680   11.0210   -7.9640 C   0  0  0  0  0  0  0  0  0  0  0  0
   -2.8180   11.3660   -9.2190 C   0  0  0  0  0  0  0  0  0  0  0  0
   -1.7170   10.9370   -8.4980 C   0  0  0  0  0  0  0  0  0  0  0  0
   -0.3230   11.0910   -9.0360 C   0  0  0  0  0  0  0  0  0  0  0  0
   -0.3890   11.3690  -10.5360 C   0  0  0  0  0  0  0  0  0  0  0  0
   -1.3230   12.4680  -10.7530 N   0  0  0  0  0  4  0  0  0  0  0  0
   -2.6750   12.0150  -10.5180 C   0  0  0  0  0  0  0  0  0  0  0  0
   -3.4230    6.1510   -5.6510 C   0  0  0  0  0  0  0  0  0  0  0  0
   -4.7870    5.8070   -5.0500 C   0  0  0  0  0  0  0  0  0  0  0  0
   -9.9684    8.4069   -3.8502 H   0  0  0  0  0  0  0  0  0  0  0  0
   -9.6382    9.2436   -5.4050 H   0  0  0  0  0  0  0  0  0  0  0  0
  -10.2039    7.5387   -5.4050 H   0  0  0  0  0  0  0  0  0  0  0  0
   -9.6558    7.4548   -2.6544 H   0  0  0  0  0  0  0  0  0  0  0  0
   -8.7997    6.4157   -0.5724 H   0  0  0  0  0  0  0  0  0  0  0  0
   -6.4544    5.6505   -0.4524 H   0  0  0  0  0  0  0  0  0  0  0  0
   -4.9310    5.9138   -2.3990 H   0  0  0  0  0  0  0  0  0  0  0  0
   -6.3540    7.2624   -5.6352 H   0  0  0  0  0  0  0  0  0  0  0  0
   -4.2634    8.4774   -5.6867 H   0  0  0  0  0  0  0  0  0  0  0  0
   -5.0756    9.0515   -4.2154 H   0  0  0  0  0  0  0  0  0  0  0  0
   -2.9291    8.4729   -3.4383 H   0  0  0  0  0  0  0  0  0  0  0  0
   -3.8938    6.9953   -3.0766 H   0  0  0  0  0  0  0  0  0  0  0  0
   -2.1183    6.1283   -4.1541 H   0  0  0  0  0  0  0  0  0  0  0  0
   -1.0812    8.0315   -4.2358 H   0  0  0  0  0  0  0  0  0  0  0  0
   -0.8879    6.5711   -5.4943 H   0  0  0  0  0  0  0  0  0  0  0  0
   -2.2220    8.0014   -6.5919 H   0  0  0  0  0  0  0  0  0  0  0  0
    0.6357    7.8325   -6.5450 H   0  0  0  0  0  0  0  0  0  0  0  0
   -2.1126   10.0215   -5.3460 H   0  0  0  0  0  0  0  0  0  0  0  0
   -0.4753   10.2476   -6.1944 H   0  0  0  0  0  0  0  0  0  0  0  0
   -4.8411   12.0991  -10.7744 H   0  0  0  0  0  0  0  0  0  0  0  0
   -7.1774   12.5382  -11.3520 H   0  0  0  0  0  0  0  0  0  0  0  0
   -9.8990   13.0306   -6.7651 H   0  0  0  0  0  0  0  0  0  0  0  0
  -10.3245   11.7632   -5.4781 H   0  0  0  0  0  0  0  0  0  0  0  0
   -7.5508   12.5948   -5.5658 H   0  0  0  0  0  0  0  0  0  0  0  0
   -8.7815   13.8610   -5.0856 H   0  0  0  0  0  0  0  0  0  0  0  0
   -8.3613   12.9856   -3.1874 H   0  0  0  0  0  0  0  0  0  0  0  0
   -8.1857   10.2039   -3.9881 H   0  0  0  0  0  0  0  0  0  0  0  0
   -6.7837   11.2834   -4.1035 H   0  0  0  0  0  0  0  0  0  0  0  0
   -7.1512   10.0692   -1.8067 H   0  0  0  0  0  0  0  0  0  0  0  0
   -6.8966   11.8370   -1.7254 H   0  0  0  0  0  0  0  0  0  0  0  0
   -9.0178   10.5181   -0.5766 H   0  0  0  0  0  0  0  0  0  0  0  0
   -9.0474   12.2516   -1.0986 H   0  0  0  0  0  0  0  0  0  0  0  0
   -9.9796    9.8490   -2.7117 H   0  0  0  0  0  0  0  0  0  0  0  0
  -11.0085   11.1173   -1.9028 H   0  0  0  0  0  0  0  0  0  0  0  0
  -10.3118   11.1671   -4.5159 H   0  0  0  0  0  0  0  0  0  0  0  0
  -10.6781   12.6189   -3.5254 H   0  0  0  0  0  0  0  0  0  0  0  0
   -6.1313   10.5820   -6.9836 H   0  0  0  0  0  0  0  0  0  0  0  0
    0.1762   11.9296   -8.5285 H   0  0  0  0  0  0  0  0  0  0  0  0
    0.2453   10.1663   -8.8572 H   0  0  0  0  0  0  0  0  0  0  0  0
    0.6080   11.6482  -10.9076 H   0  0  0  0  0  0  0  0  0  0  0  0
   -0.7253   10.4712  -11.0753 H   0  0  0  0  0  0  0  0  0  0  0  0
   -1.1025   13.2372  -10.1045 H   0  0  0  0  0  0  0  0  0  0  0  0
   -1.2392   12.7987  -11.7249 H   0  0  0  0  0  0  0  0  0  0  0  0
   -3.3515   12.8815  -10.5581 H   0  0  0  0  0  0  0  0  0  0  0  0
   -2.9251   11.2774  -11.2948 H   0  0  0  0  0  0  0  0  0  0  0  0
   -3.5705    6.7863   -6.5368 H   0  0  0  0  0  0  0  0  0  0  0  0
   -2.9165    5.2144   -5.9271 H   0  0  0  0  0  0  0  0  0  0  0  0
   -5.3154    5.1278   -5.7352 H   0  0  0  0  0  0  0  0  0  0  0  0
   -4.6165    5.3339   -4.0717 H   0  0  0  0  0  0  0  0  0  0  0  0
  1  2  1  0
  2  3  1  0
  3  4  2  0
  4  5  1  0
  5  6  2  0
  6  7  1  0
  7  8  2  0
  8  9  1  0
  9 10  1  0
 10 11  1  0
 11 12  1  0
 12 13  1  0
 13 14  1  0
 14 15  1  0
 14 16  1  0
 16 17  1  0
 17 18  1  0
 18 19  2  0
 19 20  1  0
 20 21  2  0
 21 22  1  0
 22 23  2  0
 23 24  1  0
 24 25  1  0
 24 26  1  0
 24 27  1  0
 23 28  1  0
 28 29  1  0
 29 30  1  0
 30 31  1  0
 31 32  1  0
 32 33  1  0
 33 34  1  0
 34 35  1  0
 35 36  1  0
 36 37  1  0
 28 38  2  0
 19 39  1  0
 39 40  2  0
 40 41  1  0
 41 42  1  0
 42 43  1  0
 43 44  1  0
 12 45  1  0
 45 46  1  0
  8  3  1  0
 46  9  1  0
 40 17  1  0
 38 20  1  0
 44 39  1  0
 37 32  1  0
  1 47  1  0
  1 48  1  0
  1 49  1  0
  4 50  1  0
  5 51  1  0
  6 52  1  0
  7 53  1  0
  9 54  1  0
 10 55  1  0
 10 56  1  0
 11 57  1  0
 11 58  1  0
 12 59  1  0
 13 60  1  0
 13 61  1  0
 14 62  1  6
 15 63  1  0
 16 64  1  0
 16 65  1  0
 21 66  1  0
 22 67  1  0
 30 68  1  0
 30 69  1  0
 31 70  1  0
 31 71  1  0
 32 72  1  0
 33 73  1  0
 33 74  1  0
 34 75  1  0
 34 76  1  0
 35 77  1  0
 35 78  1  0
 36 79  1  0
 36 80  1  0
 37 81  1  0
 37 82  1  0
 38 83  1  0
 41 84  1  0
 41 85  1  0
 42 86  1  0
 42 87  1  0
 43 88  1  0
 43 89  1  0
 44 90  1  0
 44 91  1  0
 45 92  1  0
 45 93  1  0
 46 94  1  0
 46 95  1  0
M  CHG  3  12   1  32   1  43   1
M  END
$$$$
