
     RDKit          3D

 85 89  0  0  0  0  0  0  0  0999 V2000
   -8.0190   11.8800   -5.6290 C   0  0  0  0  0  0  0  0  0  0  0  0
   -9.5410   11.9130   -5.5970 C   0  0  0  0  0  0  0  0  0  0  0  0
  -10.0620   10.6300   -6.2540 C   0  0  0  0  0  0  0  0  0  0  0  0
  -10.0410   13.0620   -6.4090 C   0  0  0  0  0  0  0  0  0  0  0  0
  -10.0300   11.9030   -4.2690 O   0  0  0  0  0  0  0  0  0  0  0  0
   -9.2860   11.4790   -3.1910 C   0  0  0  0  0  0  0  0  0  0  0  0
   -8.6860   12.3720   -2.5280 O   0  0  0  0  0  0  0  0  0  0  0  0
   -9.1710   10.1170   -2.8060 N   0  0  0  0  0  0  0  0  0  0  0  0
   -9.8350    9.0400   -3.5270 C   0  0  0  0  0  0  0  0  0  0  0  0
   -8.8080    7.9410   -3.6650 C   0  0  0  0  0  0  0  0  0  0  0  0
   -8.6650    7.2950   -2.2790 C   0  0  0  0  0  0  0  0  0  0  0  0
   -7.2870    6.6940   -2.2330 C   0  0  0  0  0  0  0  0  0  0  0  0
   -6.8130    6.1320   -3.5090 C   0  0  0  0  0  0  0  0  0  0  0  0
   -7.3710    5.1010   -3.9610 O   0  0  0  0  0  0  0  0  0  0  0  0
   -5.7340    6.7360   -4.2370 N   0  0  0  0  0  0  0  0  0  0  0  0
   -4.5230    7.0870   -3.5370 C   0  0  0  0  0  0  0  0  0  0  0  0
   -3.3490    7.1040   -4.5320 C   0  0  0  0  0  0  0  0  0  0  0  0
   -3.7440    8.1250   -5.5400 C   0  0  0  0  0  0  0  0  0  0  0  0
   -5.0070    8.0520   -6.0770 C   0  0  0  0  0  0  0  0  0  0  0  0
   -5.1780    9.1000   -6.9920 C   0  0  0  0  0  0  0  0  0  0  0  0
   -6.3650    9.3960   -7.7850 C   0  0  0  0  0  0  0  0  0  0  0  0
   -7.4830    8.5930   -7.7410 C   0  0  0  0  0  0  0  0  0  0  0  0
   -8.6180    8.8520   -8.4810 C   0  0  0  0  0  0  0  0  0  0  0  0
   -8.6400    9.9500   -9.2950 C   0  0  0  0  0  0  0  0  0  0  0  0
  -10.0620   10.3210  -10.2560 Cl  0  0  0  0  0  0  0  0  0  0  0  0
   -7.5390   10.7780   -9.3670 C   0  0  0  0  0  0  0  0  0  0  0  0
   -7.5830   12.4660  -10.6230 I   0  0  0  0  0  0  0  0  0  0  0  0
   -6.3960   10.5000   -8.6090 C   0  0  0  0  0  0  0  0  0  0  0  0
   -4.0030    9.7610   -6.9660 N   0  0  0  0  0  0  0  0  0  0  0  0
   -3.1600    9.1950   -6.1180 N   0  0  0  0  0  0  0  0  0  0  0  0
   -1.7910    9.5700   -5.7720 C   0  0  0  0  0  0  0  0  0  0  0  0
   -1.5910   11.0140   -6.1890 C   0  0  0  0  0  0  0  0  0  0  0  0
   -0.8030   10.9720   -7.4820 C   0  0  0  0  0  0  0  0  0  0  0  0
   -1.3770   11.7940   -8.5020 N   0  0  0  0  0  0  0  0  0  0  0  0
   -0.2980   12.4970   -9.1840 C   0  0  0  0  0  0  0  0  0  0  0  0
   -0.6960   12.8530  -10.6010 C   0  0  0  0  0  0  0  0  0  0  0  0
   -2.0520   13.0540  -10.7310 O   0  0  0  0  0  0  0  0  0  0  0  0
   -2.8480   11.9970  -10.3720 C   0  0  0  0  0  0  0  0  0  0  0  0
   -2.1310   11.0390   -9.4800 C   0  0  0  0  0  0  0  0  0  0  0  0
   -5.9070    6.9630   -5.6440 C   0  0  0  0  0  0  0  0  0  0  0  0
   -8.8790    8.3490   -1.2080 C   0  0  0  0  0  0  0  0  0  0  0  0
   -8.3770    9.7210   -1.6660 C   0  0  0  0  0  0  0  0  0  0  0  0
   -7.6307   11.8716   -4.5998 H   0  0  0  0  0  0  0  0  0  0  0  0
   -7.6829   10.9744   -6.1551 H   0  0  0  0  0  0  0  0  0  0  0  0
   -7.6439   12.7702   -6.1551 H   0  0  0  0  0  0  0  0  0  0  0  0
  -10.3539    9.9112   -5.4742 H   0  0  0  0  0  0  0  0  0  0  0  0
  -10.9352   10.8669   -6.8797 H   0  0  0  0  0  0  0  0  0  0  0  0
   -9.2709   10.1911   -6.8797 H   0  0  0  0  0  0  0  0  0  0  0  0
  -10.3888   13.8613   -5.7381 H   0  0  0  0  0  0  0  0  0  0  0  0
   -9.2277   13.4440   -7.0436 H   0  0  0  0  0  0  0  0  0  0  0  0
  -10.8748   12.7272   -7.0436 H   0  0  0  0  0  0  0  0  0  0  0  0
  -10.7066    8.6805   -2.9604 H   0  0  0  0  0  0  0  0  0  0  0  0
  -10.2018    9.3762   -4.5081 H   0  0  0  0  0  0  0  0  0  0  0  0
   -9.1476    7.1945   -4.3981 H   0  0  0  0  0  0  0  0  0  0  0  0
   -7.8454    8.3405   -4.0169 H   0  0  0  0  0  0  0  0  0  0  0  0
   -9.4135    6.5099   -2.0966 H   0  0  0  0  0  0  0  0  0  0  0  0
   -6.5819    7.4791   -1.9225 H   0  0  0  0  0  0  0  0  0  0  0  0
   -7.3406    5.8528   -1.5263 H   0  0  0  0  0  0  0  0  0  0  0  0
   -4.6356    8.0831   -3.0840 H   0  0  0  0  0  0  0  0  0  0  0  0
   -4.3262    6.3479   -2.7464 H   0  0  0  0  0  0  0  0  0  0  0  0
   -2.4145    7.3929   -4.0288 H   0  0  0  0  0  0  0  0  0  0  0  0
   -3.1610    6.1175   -4.9808 H   0  0  0  0  0  0  0  0  0  0  0  0
   -7.4704    7.7077   -7.0882 H   0  0  0  0  0  0  0  0  0  0  0  0
   -9.4911    8.1859   -8.4171 H   0  0  0  0  0  0  0  0  0  0  0  0
   -5.5210   11.1637   -8.6710 H   0  0  0  0  0  0  0  0  0  0  0  0
   -1.6370    9.4681   -4.6876 H   0  0  0  0  0  0  0  0  0  0  0  0
   -1.0703    8.9166   -6.2855 H   0  0  0  0  0  0  0  0  0  0  0  0
   -2.5630   11.5031   -6.3499 H   0  0  0  0  0  0  0  0  0  0  0  0
   -1.0611   11.5867   -5.4136 H   0  0  0  0  0  0  0  0  0  0  0  0
    0.2207   11.3214   -7.2823 H   0  0  0  0  0  0  0  0  0  0  0  0
   -0.8133    9.9338   -7.8453 H   0  0  0  0  0  0  0  0  0  0  0  0
   -0.0645   13.4199   -8.6328 H   0  0  0  0  0  0  0  0  0  0  0  0
    0.5823   11.8385   -9.2211 H   0  0  0  0  0  0  0  0  0  0  0  0
   -0.1726   13.7751  -10.8938 H   0  0  0  0  0  0  0  0  0  0  0  0
   -0.4186   12.0087  -11.2492 H   0  0  0  0  0  0  0  0  0  0  0  0
   -3.7327   12.3814   -9.8433 H   0  0  0  0  0  0  0  0  0  0  0  0
   -3.1360   11.4602  -11.2879 H   0  0  0  0  0  0  0  0  0  0  0  0
   -2.8596   10.3931   -8.9681 H   0  0  0  0  0  0  0  0  0  0  0  0
   -1.4518   10.4094  -10.0736 H   0  0  0  0  0  0  0  0  0  0  0  0
   -6.9506    7.2469   -5.8449 H   0  0  0  0  0  0  0  0  0  0  0  0
   -5.6663    6.0437   -6.1980 H   0  0  0  0  0  0  0  0  0  0  0  0
   -9.9536    8.4178   -0.9833 H   0  0  0  0  0  0  0  0  0  0  0  0
   -8.3112    8.0536   -0.3134 H   0  0  0  0  0  0  0  0  0  0  0  0
   -8.4944   10.4538   -0.8541 H   0  0  0  0  0  0  0  0  0  0  0  0
   -7.3114    9.6731   -1.9346 H   0  0  0  0  0  0  0  0  0  0  0  0
  1  2  1  0
  2  3  1  0
  2  4  1  0
  2  5  1  0
  5  6  1  0
  6  7  2  0
  6  8  1  0
  8  9  1  0
  9 10  1  0
 10 11  1  0
 11 12  1  0
 12 13  1  0
 13 14  2  0
 13 15  1  0
 15 16  1  0
 16 17  1  0
 17 18  1  0
 18 19  2  0
 19 20  1  0
 20 21  1  0
 21 22  2  0
 22 23  1  0
 23 24  2  0
 24 25  1  0
 24 26  1  0
 26 27  1  0
 26 28  2  0
 20 29  2  0
 29 30  1  0
 30 31  1  0
 31 32  1  0
 32 33  1  0
 33 34  1  0
 34 35  1  0
 35 36  1  0
 36 37  1  0
 37 38  1  0
 38 39  1  0
 19 40  1  0
 11 41  1  0
 41 42  1  0
 42  8  1  0
 40 15  1  0
 30 18  1  0
 39 34  1  0
 28 21  1  0
  1 43  1  0
  1 44  1  0
  1 45  1  0
  3 46  1  0
  3 47  1  0
  3 48  1  0
  4 49  1  0
  4 50  1  0
  4 51  1  0
  9 52  1  0
  9 53  1  0
 10 54  1  0
 10 55  1  0
 11 56  1  0
 12 57  1  0
 12 58  1  0
 16 59  1  0
 16 60  1  0
 17 61  1  0
 17 62  1  0
 22 63  1  0
 23 64  1  0
 28 65  1  0
 31 66  1  0
 31 67  1  0
 32 68  1  0
 32 69  1  0
 33 70  1  0
 33 71  1  0
 35 72  1  0
 35 73  1  0
 36 74  1  0
 36 75  1  0
 38 76  1  0
 38 77  1  0
 39 78  1  0
 39 79  1  0
 40 80  1  0
 40 81  1  0
 41 82  1  0
 41 83  1  0
 42 84  1  0
 42 85  1  0
M  END
$$$$
