
     RDKit          3D

 77 82  0  0  0  0  0  0  0  0999 V2000
   -8.6510   12.8590   -3.5790 C   0  0  0  0  0  0  0  0  0  0  0  0
   -8.6820   11.8780   -2.1120 S   0  0  0  0  0  6  0  0  0  0  0  0
   -7.2990   11.2470   -1.9900 O   0  0  0  0  0  0  0  0  0  0  0  0
   -8.9950   12.7140   -0.9380 O   0  0  0  0  0  0  0  0  0  0  0  0
   -9.8050   10.5680   -2.2130 N   0  0  0  0  0  0  0  0  0  0  0  0
   -9.3500    9.4330   -1.4460 C   0  0  0  0  0  0  0  0  0  0  0  0
   -9.7570    8.1160   -2.0720 C   0  0  0  0  0  0  0  0  0  0  0  0
   -9.0820    8.0320   -3.3990 C   0  0  0  0  0  0  0  0  0  0  0  0
   -9.2200    9.1880   -4.1780 C   0  0  0  0  0  0  0  0  0  0  0  0
   -8.5160    8.9680   -5.3240 C   0  0  0  0  0  0  0  0  0  0  0  0
   -8.2490    9.8640   -6.4550 C   0  0  0  0  0  0  0  0  0  0  0  0
   -7.8660    9.2670   -7.6710 C   0  0  0  0  0  0  0  0  0  0  0  0
   -7.5510   10.0020   -8.7750 C   0  0  0  0  0  0  0  0  0  0  0  0
   -7.5950   11.4000   -8.7400 C   0  0  0  0  0  0  0  0  0  0  0  0
   -7.2410   12.1240   -9.9780 C   0  0  0  0  0  0  0  0  0  0  0  0
   -6.9730   11.2300  -11.0120 F   0  0  0  0  0  0  0  0  0  0  0  0
   -8.2820   12.9300  -10.4590 F   0  0  0  0  0  0  0  0  0  0  0  0
   -6.1610   12.9410   -9.8400 F   0  0  0  0  0  0  0  0  0  0  0  0
   -7.9690   11.9840   -7.5510 C   0  0  0  0  0  0  0  0  0  0  0  0
   -8.2880   11.2160   -6.4360 C   0  0  0  0  0  0  0  0  0  0  0  0
   -8.0040    7.7200   -5.1910 N   0  0  0  0  0  0  0  0  0  0  0  0
   -8.3520    7.1710   -4.0250 N   0  0  0  0  0  0  0  0  0  0  0  0
   -7.8260    5.9080   -3.6050 C   0  0  0  0  0  0  0  0  0  0  0  0
   -7.0940    5.8190   -2.3180 C   0  0  2  0  0  0  0  0  0  0  0  0
   -7.3760    6.7870   -1.4010 O   0  0  0  0  0  0  0  0  0  0  0  0
   -5.6370    5.6020   -2.4960 C   0  0  0  0  0  0  0  0  0  0  0  0
   -4.9340    6.3320   -3.4900 N   0  0  0  0  0  4  0  0  0  0  0  0
   -5.0480    5.8170   -4.8200 C   0  0  0  0  0  0  0  0  0  0  0  0
   -4.2830    6.6290   -5.8350 C   0  0  0  0  0  0  0  0  0  0  0  0
   -3.2910    7.5200   -5.1800 C   0  0  0  0  0  0  0  0  0  0  0  0
   -2.2970    8.0920   -6.1220 C   0  0  0  0  0  0  0  0  0  0  0  0
   -1.0140    7.5760   -6.2580 C   0  0  0  0  0  0  0  0  0  0  0  0
   -0.2860    8.3040   -7.0900 N   0  0  0  0  0  0  0  0  0  0  0  0
   -1.0580    9.3020   -7.5170 C   0  0  0  0  0  0  0  0  0  0  0  0
   -0.7930   10.3150   -8.3990 C   0  0  0  0  0  0  0  0  0  0  0  0
   -1.7920   11.2150   -8.6890 C   0  0  0  0  0  0  0  0  0  0  0  0
   -3.0230   11.1050   -8.1120 N   0  0  0  0  0  4  0  0  0  0  0  0
   -3.9700   12.0430   -8.4680 O   0  0  0  0  0  1  0  0  0  0  0  0
   -3.3100   10.1030   -7.2340 C   0  0  0  0  0  0  0  0  0  0  0  0
   -2.3270    9.1950   -6.9300 C   0  0  0  0  0  0  0  0  0  0  0  0
   -3.8300    8.3910   -4.1520 C   0  0  0  0  0  0  0  0  0  0  0  0
   -5.0370    7.7610   -3.4520 C   0  0  0  0  0  0  0  0  0  0  0  0
  -10.0620   10.2500   -3.6170 C   0  0  0  0  0  0  0  0  0  0  0  0
   -8.6173   13.9243   -3.3071 H   0  0  0  0  0  0  0  0  0  0  0  0
   -7.7605   12.6037   -4.1721 H   0  0  0  0  0  0  0  0  0  0  0  0
   -9.5559   12.6604   -4.1721 H   0  0  0  0  0  0  0  0  0  0  0  0
   -8.2526    9.4685   -1.3787 H   0  0  0  0  0  0  0  0  0  0  0  0
   -9.8156    9.4908   -0.4511 H   0  0  0  0  0  0  0  0  0  0  0  0
   -9.4371    7.2799   -1.4327 H   0  0  0  0  0  0  0  0  0  0  0  0
  -10.8496    8.0582   -2.1851 H   0  0  0  0  0  0  0  0  0  0  0  0
   -7.8193    8.1697   -7.7324 H   0  0  0  0  0  0  0  0  0  0  0  0
   -7.2589    9.4902   -9.7039 H   0  0  0  0  0  0  0  0  0  0  0  0
   -8.0166   13.0807   -7.4811 H   0  0  0  0  0  0  0  0  0  0  0  0
   -8.5822   11.7257   -5.5067 H   0  0  0  0  0  0  0  0  0  0  0  0
   -8.6754    5.2121   -3.5400 H   0  0  0  0  0  0  0  0  0  0  0  0
   -7.0571    5.6821   -4.3585 H   0  0  0  0  0  0  0  0  0  0  0  0
   -7.5050    4.9080   -1.8584 H   0  0  0  0  0  0  0  0  0  0  0  0
   -7.2686    6.4184   -0.4885 H   0  0  0  0  0  0  0  0  0  0  0  0
   -5.1598    5.8339   -1.5324 H   0  0  0  0  0  0  0  0  0  0  0  0
   -5.5739    4.5621   -2.8489 H   0  0  0  0  0  0  0  0  0  0  0  0
   -3.9670    6.1483   -3.1867 H   0  0  0  0  0  0  0  0  0  0  0  0
   -4.6610    4.7874   -4.8314 H   0  0  0  0  0  0  0  0  0  0  0  0
   -6.1112    5.8597   -5.0989 H   0  0  0  0  0  0  0  0  0  0  0  0
   -3.7551    5.9452   -6.5160 H   0  0  0  0  0  0  0  0  0  0  0  0
   -4.9987    7.2551   -6.3879 H   0  0  0  0  0  0  0  0  0  0  0  0
   -2.6641    6.8652   -4.5568 H   0  0  0  0  0  0  0  0  0  0  0  0
   -0.6495    6.6766   -5.7400 H   0  0  0  0  0  0  0  0  0  0  0  0
    0.6936    8.1312   -7.3571 H   0  0  0  0  0  0  0  0  0  0  0  0
    0.1986   10.4073   -8.8662 H   0  0  0  0  0  0  0  0  0  0  0  0
   -1.5954   12.0346   -9.3959 H   0  0  0  0  0  0  0  0  0  0  0  0
   -4.3082   10.0238   -6.7787 H   0  0  0  0  0  0  0  0  0  0  0  0
   -3.0471    8.5876   -3.4048 H   0  0  0  0  0  0  0  0  0  0  0  0
   -4.1602    9.3242   -4.6317 H   0  0  0  0  0  0  0  0  0  0  0  0
   -5.0670    8.0965   -2.4048 H   0  0  0  0  0  0  0  0  0  0  0  0
   -5.9571    8.0709   -3.9692 H   0  0  0  0  0  0  0  0  0  0  0  0
   -9.8987   11.1628   -4.2087 H   0  0  0  0  0  0  0  0  0  0  0  0
  -11.0961    9.8778   -3.6628 H   0  0  0  0  0  0  0  0  0  0  0  0
  1  2  1  0
  2  3  2  0
  2  4  2  0
  2  5  1  0
  5  6  1  0
  6  7  1  0
  7  8  1  0
  8  9  2  0
  9 10  1  0
 10 11  1  0
 11 12  2  0
 12 13  1  0
 13 14  2  0
 14 15  1  0
 15 16  1  0
 15 17  1  0
 15 18  1  0
 14 19  1  0
 19 20  2  0
 10 21  2  0
 21 22  1  0
 22 23  1  0
 23 24  1  0
 24 25  1  0
 24 26  1  0
 26 27  1  0
 27 28  1  0
 28 29  1  0
 29 30  1  0
 30 31  1  0
 31 32  2  0
 32 33  1  0
 33 34  1  0
 34 35  2  0
 35 36  1  0
 36 37  2  0
 37 38  1  0
 37 39  1  0
 39 40  2  0
 30 41  1  0
 41 42  1  0
  9 43  1  0
 43  5  1  0
 22  8  1  0
 42 27  1  0
 20 11  1  0
 40 31  1  0
 40 34  1  0
  1 44  1  0
  1 45  1  0
  1 46  1  0
  6 47  1  0
  6 48  1  0
  7 49  1  0
  7 50  1  0
 12 51  1  0
 13 52  1  0
 19 53  1  0
 20 54  1  0
 23 55  1  0
 23 56  1  0
 24 57  1  1
 25 58  1  0
 26 59  1  0
 26 60  1  0
 27 61  1  0
 28 62  1  0
 28 63  1  0
 29 64  1  0
 29 65  1  0
 30 66  1  0
 32 67  1  0
 33 68  1  0
 35 69  1  0
 36 70  1  0
 39 71  1  0
 41 72  1  0
 41 73  1  0
 42 74  1  0
 42 75  1  0
 43 76  1  0
 43 77  1  0
M  CHG  3  27   1  37   1  38  -1
M  END
$$$$
