
     RDKit          3D

 81 87  0  0  0  0  0  0  0  0999 V2000
   -8.0020    7.9010   -1.9370 C   0  0  0  0  0  0  0  0  0  0  0  0
   -7.8260    7.9120   -3.3760 N   0  0  0  0  0  0  0  0  0  0  0  0
   -8.7270    7.7840   -4.3300 C   0  0  0  0  0  0  0  0  0  0  0  0
   -9.9610    7.6120   -4.1110 O   0  0  0  0  0  0  0  0  0  0  0  0
   -8.1810    7.8590   -5.5460 N   0  0  0  0  0  0  0  0  0  0  0  0
   -8.8500    7.7260   -6.8430 C   0  0  0  0  0  0  0  0  0  0  0  0
   -7.8480    7.4270   -7.9080 C   0  0  0  0  0  0  0  0  0  0  0  0
   -8.4420    7.4670   -9.2870 C   0  0  0  0  0  0  0  0  0  0  0  0
   -9.3620    8.5180   -9.5410 N   0  0  0  0  0  0  0  0  0  0  0  0
   -9.1490    9.2150  -10.7450 C   0  0  0  0  0  0  0  0  0  0  0  0
   -9.7820   10.5050  -11.0110 C   0  0  0  0  0  0  0  0  0  0  0  0
   -8.8410   11.6720  -11.0170 C   0  0  0  0  0  0  0  0  0  0  0  0
   -8.3070   11.7770   -9.6280 N   0  0  0  0  0  0  0  0  0  0  0  0
   -8.9160   11.7590   -8.4830 N   0  0  0  0  0  0  0  0  0  0  0  0
   -8.0730   11.9960   -7.4650 C   0  0  0  0  0  0  0  0  0  0  0  0
   -8.3150   12.0960   -6.0220 C   0  0  0  0  0  0  0  0  0  0  0  0
   -9.2640   12.9220   -5.5260 C   0  0  0  0  0  0  0  0  0  0  0  0
   -9.4620   13.0370   -4.1600 C   0  0  0  0  0  0  0  0  0  0  0  0
   -8.6910   12.3080   -3.2920 C   0  0  0  0  0  0  0  0  0  0  0  0
   -8.8820   12.4070   -1.8000 C   0  0  0  0  0  0  0  0  0  0  0  0
  -10.0480   13.0600   -1.5310 F   0  0  0  0  0  0  0  0  0  0  0  0
   -8.9590   11.1410   -1.2750 F   0  0  0  0  0  0  0  0  0  0  0  0
   -7.7780   13.0410   -1.2280 F   0  0  0  0  0  0  0  0  0  0  0  0
   -7.7230   11.4680   -3.8060 C   0  0  0  0  0  0  0  0  0  0  0  0
   -7.5230   11.3510   -5.1500 C   0  0  0  0  0  0  0  0  0  0  0  0
   -6.7860   12.1760   -8.0290 C   0  0  0  0  0  0  0  0  0  0  0  0
   -6.9890   12.0310   -9.3570 C   0  0  0  0  0  0  0  0  0  0  0  0
   -5.8820   12.1410  -10.3240 C   0  0  0  0  0  0  0  0  0  0  0  0
   -4.8380   13.0620   -9.7190 C   0  0  0  0  0  0  0  0  0  0  0  0
   -4.4430   12.4790   -8.4550 N   0  0  0  0  0  0  0  0  0  0  0  0
   -3.1560   12.0090   -8.2220 C   0  0  0  0  0  0  0  0  0  0  0  0
   -2.9020   11.5770   -7.0440 O   0  0  0  0  0  0  0  0  0  0  0  0
   -2.0940   11.9740   -9.1920 C   0  0  0  0  0  0  0  0  0  0  0  0
   -1.3550   10.8230   -9.5020 C   0  0  0  0  0  0  0  0  0  0  0  0
   -0.4530   11.1520  -10.4270 N   0  0  0  0  0  0  0  0  0  0  0  0
   -0.5950   12.4520  -10.7080 C   0  0  0  0  0  0  0  0  0  0  0  0
   -1.5830   12.9410   -9.9660 N   0  0  0  0  0  0  0  0  0  0  0  0
   -5.4730   12.4320   -7.3780 C   0  0  0  0  0  0  0  0  0  0  0  0
   -9.1470    9.5830   -8.4830 C   0  0  0  0  0  0  0  0  0  0  0  0
   -9.5540    9.0280   -7.1700 C   0  0  0  0  0  0  0  0  0  0  0  0
   -6.8580    8.0430   -5.3770 C   0  0  0  0  0  0  0  0  0  0  0  0
   -5.7460    8.1870   -6.1920 C   0  0  0  0  0  0  0  0  0  0  0  0
   -4.4650    8.3490   -5.6650 C   0  0  0  0  0  0  0  0  0  0  0  0
   -4.3120    8.3690   -4.3090 C   0  0  0  0  0  0  0  0  0  0  0  0
   -5.3890    8.2340   -3.4720 C   0  0  0  0  0  0  0  0  0  0  0  0
   -6.6330    8.0760   -3.9880 C   0  0  0  0  0  0  0  0  0  0  0  0
   -7.0191    7.9624   -1.4469 H   0  0  0  0  0  0  0  0  0  0  0  0
   -8.6162    8.7625   -1.6361 H   0  0  0  0  0  0  0  0  0  0  0  0
   -8.5042    6.9697   -1.6361 H   0  0  0  0  0  0  0  0  0  0  0  0
   -9.5785    6.9032   -6.7945 H   0  0  0  0  0  0  0  0  0  0  0  0
   -7.0400    8.1713   -7.8506 H   0  0  0  0  0  0  0  0  0  0  0  0
   -7.4730    6.4073   -7.7360 H   0  0  0  0  0  0  0  0  0  0  0  0
   -7.6153    7.5630  -10.0063 H   0  0  0  0  0  0  0  0  0  0  0  0
   -9.0213    6.5372   -9.3860 H   0  0  0  0  0  0  0  0  0  0  0  0
   -8.0642    9.3827  -10.8169 H   0  0  0  0  0  0  0  0  0  0  0  0
   -9.6361    8.5601  -11.4825 H   0  0  0  0  0  0  0  0  0  0  0  0
  -10.2689   10.4517  -11.9959 H   0  0  0  0  0  0  0  0  0  0  0  0
  -10.4909   10.6801  -10.1883 H   0  0  0  0  0  0  0  0  0  0  0  0
   -8.0212   11.4982  -11.7295 H   0  0  0  0  0  0  0  0  0  0  0  0
   -9.3494   12.5978  -11.3242 H   0  0  0  0  0  0  0  0  0  0  0  0
   -9.8866   13.5101   -6.2163 H   0  0  0  0  0  0  0  0  0  0  0  0
  -10.2378   13.7132   -3.7717 H   0  0  0  0  0  0  0  0  0  0  0  0
   -7.0995   10.8803   -3.1162 H   0  0  0  0  0  0  0  0  0  0  0  0
   -6.7464   10.6771   -5.5409 H   0  0  0  0  0  0  0  0  0  0  0  0
   -5.4452   11.1486  -10.5095 H   0  0  0  0  0  0  0  0  0  0  0  0
   -6.2432   12.5414  -11.2827 H   0  0  0  0  0  0  0  0  0  0  0  0
   -3.9683   13.1387  -10.3881 H   0  0  0  0  0  0  0  0  0  0  0  0
   -5.2429   14.0746   -9.5754 H   0  0  0  0  0  0  0  0  0  0  0  0
   -1.4949    9.8254   -9.0602 H   0  0  0  0  0  0  0  0  0  0  0  0
    0.2352   10.5145  -10.8523 H   0  0  0  0  0  0  0  0  0  0  0  0
    0.0058   13.0213  -11.4325 H   0  0  0  0  0  0  0  0  0  0  0  0
   -5.2402   11.6228   -6.6701 H   0  0  0  0  0  0  0  0  0  0  0  0
   -5.4945   13.3795   -6.8196 H   0  0  0  0  0  0  0  0  0  0  0  0
   -8.0848    9.8674   -8.4528 H   0  0  0  0  0  0  0  0  0  0  0  0
   -9.7460   10.4752   -8.7180 H   0  0  0  0  0  0  0  0  0  0  0  0
   -9.3154    9.7635   -6.3876 H   0  0  0  0  0  0  0  0  0  0  0  0
  -10.6332    8.8202   -7.2166 H   0  0  0  0  0  0  0  0  0  0  0  0
   -5.8775    8.1731   -7.2840 H   0  0  0  0  0  0  0  0  0  0  0  0
   -3.5950    8.4585   -6.3292 H   0  0  0  0  0  0  0  0  0  0  0  0
   -3.3069    8.4957   -3.8803 H   0  0  0  0  0  0  0  0  0  0  0  0
   -5.2442    8.2538   -2.3818 H   0  0  0  0  0  0  0  0  0  0  0  0
  1  2  1  0
  2  3  1  0
  3  4  2  0
  3  5  1  0
  5  6  1  0
  6  7  1  0
  7  8  1  0
  8  9  1  0
  9 10  1  0
 10 11  1  0
 11 12  1  0
 12 13  1  0
 13 14  1  0
 14 15  2  0
 15 16  1  0
 16 17  2  0
 17 18  1  0
 18 19  2  0
 19 20  1  0
 20 21  1  0
 20 22  1  0
 20 23  1  0
 19 24  1  0
 24 25  2  0
 15 26  1  0
 26 27  2  0
 27 28  1  0
 28 29  1  0
 29 30  1  0
 30 31  1  0
 31 32  2  0
 31 33  1  0
 33 34  2  0
 34 35  1  0
 35 36  1  0
 36 37  2  0
 30 38  1  0
  9 39  1  0
 39 40  1  0
  5 41  1  0
 41 42  2  0
 42 43  1  0
 43 44  2  0
 44 45  1  0
 45 46  2  0
 46  2  1  0
 40  6  1  0
 46 41  1  0
 27 13  1  0
 37 33  1  0
 25 16  1  0
 38 26  1  0
  1 47  1  0
  1 48  1  0
  1 49  1  0
  6 50  1  0
  7 51  1  0
  7 52  1  0
  8 53  1  0
  8 54  1  0
 10 55  1  0
 10 56  1  0
 11 57  1  0
 11 58  1  0
 12 59  1  0
 12 60  1  0
 17 61  1  0
 18 62  1  0
 24 63  1  0
 25 64  1  0
 28 65  1  0
 28 66  1  0
 29 67  1  0
 29 68  1  0
 34 69  1  0
 35 70  1  0
 36 71  1  0
 38 72  1  0
 38 73  1  0
 39 74  1  0
 39 75  1  0
 40 76  1  0
 40 77  1  0
 42 78  1  0
 43 79  1  0
 44 80  1  0
 45 81  1  0
M  END
$$$$
