
     RDKit          3D

 99104  0  0  0  0  0  0  0  0999 V2000
   -9.5610   13.0620   -1.4540 C   0  0  0  0  0  0  0  0  0  0  0  0
   -8.9410   12.3710   -2.6720 C   0  0  0  0  0  0  0  0  0  0  0  0
   -7.7520   11.5630   -2.2720 C   0  0  0  0  0  0  0  0  0  0  0  0
   -8.1040   10.2250   -1.6480 C   0  0  0  0  0  0  0  0  0  0  0  0
   -9.2480    9.6310   -2.2440 N   0  0  0  0  0  0  0  0  0  0  0  0
   -9.2920    8.2110   -2.3030 C   0  0  0  0  0  0  0  0  0  0  0  0
   -9.6250    7.6720   -3.6700 C   0  0  0  0  0  0  0  0  0  0  0  0
   -8.3070    6.6980   -4.4130 S   0  0  0  0  0  0  0  0  0  0  0  0
   -6.7900    7.5690   -4.6370 C   0  0  0  0  0  0  0  0  0  0  0  0
   -6.6050    8.5230   -5.6130 C   0  0  0  0  0  0  0  0  0  0  0  0
   -5.4070    9.2170   -5.7900 C   0  0  0  0  0  0  0  0  0  0  0  0
   -5.2880   10.2280   -6.8590 C   0  0  0  0  0  0  0  0  0  0  0  0
   -4.3090   11.0870   -7.1150 N   0  0  0  0  0  0  0  0  0  0  0  0
   -4.5830   11.8370   -8.1620 N   0  0  0  0  0  0  0  0  0  0  0  0
   -3.7800   12.8830   -8.7520 C   0  0  0  0  0  0  0  0  0  0  0  0
   -3.2530   12.5180  -10.1060 C   0  0  1  0  0  0  0  0  0  0  0  0
   -4.1490   12.9890  -11.0610 O   0  0  0  0  0  0  0  0  0  0  0  0
   -1.8410   12.8780  -10.3710 C   0  0  0  0  0  0  0  0  0  0  0  0
   -0.8650   12.0590   -9.6840 N   0  0  0  0  0  0  0  0  0  0  0  0
   -0.9010   10.6890  -10.0760 C   0  0  0  0  0  0  0  0  0  0  0  0
   -0.9250    9.6930   -8.9610 C   0  0  0  0  0  0  0  0  0  0  0  0
   -0.0650   10.0690   -7.7890 C   0  0  0  0  0  0  0  0  0  0  0  0
   -0.4340    9.1410   -6.7060 N   0  0  0  0  0  0  0  0  0  0  0  0
   -0.1820    7.7150   -6.6360 C   0  0  0  0  0  0  0  0  0  0  0  0
   -1.4550    7.2010   -6.0000 C   0  0  1  0  0  0  0  0  0  0  0  0
   -1.3080    5.9050   -5.5030 O   0  0  0  0  0  0  0  0  0  0  0  0
   -1.6830    8.2070   -4.8940 C   0  0  0  0  0  0  0  0  0  0  0  0
   -1.1190    9.4600   -5.5030 C   0  0  0  0  0  0  0  0  0  0  0  0
   -1.2210   10.6330   -5.0380 O   0  0  0  0  0  0  0  0  0  0  0  0
   -0.2380   11.4900   -7.3600 C   0  0  0  0  0  0  0  0  0  0  0  0
   -1.2290   12.1570   -8.2620 C   0  0  0  0  0  0  0  0  0  0  0  0
   -5.7800   11.4680   -8.6200 C   0  0  0  0  0  0  0  0  0  0  0  0
   -6.2420   10.4550   -7.8140 C   0  0  0  0  0  0  0  0  0  0  0  0
   -7.5710    9.8530   -8.1170 C   0  0  0  0  0  0  0  0  0  0  0  0
   -7.7570    9.6520   -9.5260 N   0  0  0  0  0  0  0  0  0  0  0  0
   -9.3250    9.1600   -9.9630 S   0  0  0  0  0  6  0  0  0  0  0  0
   -9.3170    7.7570  -11.0620 C   0  0  0  0  0  0  0  0  0  0  0  0
  -10.0620   10.3150  -10.5550 O   0  0  0  0  0  0  0  0  0  0  0  0
  -10.0610    8.7850   -8.6880 O   0  0  0  0  0  0  0  0  0  0  0  0
   -7.1410   10.5860  -10.3960 C   0  0  0  0  0  0  0  0  0  0  0  0
   -6.7090   11.8540   -9.7270 C   0  0  0  0  0  0  0  0  0  0  0  0
   -4.3790    8.9130   -4.9360 C   0  0  0  0  0  0  0  0  0  0  0  0
   -4.5610    7.9480   -3.9480 C   0  0  0  0  0  0  0  0  0  0  0  0
   -5.7460    7.2720   -3.7840 C   0  0  0  0  0  0  0  0  0  0  0  0
   -5.9000    6.2330   -2.7080 C   0  0  0  0  0  0  0  0  0  0  0  0
   -5.0180    6.5670   -1.6860 F   0  0  0  0  0  0  0  0  0  0  0  0
   -5.4580    5.0500   -3.2540 F   0  0  0  0  0  0  0  0  0  0  0  0
   -7.1720    6.1800   -2.2260 F   0  0  0  0  0  0  0  0  0  0  0  0
   -9.5440   10.1730   -3.5520 C   0  0  0  0  0  0  0  0  0  0  0  0
   -9.9670   11.6290   -3.4610 C   0  0  0  0  0  0  0  0  0  0  0  0
   -9.1586   12.6135   -0.5337 H   0  0  0  0  0  0  0  0  0  0  0  0
   -9.3164   14.1342   -1.4767 H   0  0  0  0  0  0  0  0  0  0  0  0
  -10.6534   12.9346   -1.4767 H   0  0  0  0  0  0  0  0  0  0  0  0
   -8.5572   13.1336   -3.3657 H   0  0  0  0  0  0  0  0  0  0  0  0
   -7.1408   11.3782   -3.1677 H   0  0  0  0  0  0  0  0  0  0  0  0
   -7.2131   12.1418   -1.5074 H   0  0  0  0  0  0  0  0  0  0  0  0
   -7.2491    9.5435   -1.7692 H   0  0  0  0  0  0  0  0  0  0  0  0
   -8.3336   10.4012   -0.5868 H   0  0  0  0  0  0  0  0  0  0  0  0
   -8.3076    7.8203   -2.0059 H   0  0  0  0  0  0  0  0  0  0  0  0
  -10.0945    7.8856   -1.6247 H   0  0  0  0  0  0  0  0  0  0  0  0
  -10.5183    7.0360   -3.5830 H   0  0  0  0  0  0  0  0  0  0  0  0
   -9.7864    8.5413   -4.3245 H   0  0  0  0  0  0  0  0  0  0  0  0
   -7.4441    8.7495   -6.2873 H   0  0  0  0  0  0  0  0  0  0  0  0
   -4.3976   13.7882   -8.8478 H   0  0  0  0  0  0  0  0  0  0  0  0
   -2.9144   13.0467   -8.0933 H   0  0  0  0  0  0  0  0  0  0  0  0
   -3.1968   11.4206  -10.1574 H   0  0  0  0  0  0  0  0  0  0  0  0
   -4.9284   13.3987  -10.6085 H   0  0  0  0  0  0  0  0  0  0  0  0
   -1.6624   12.7878  -11.4526 H   0  0  0  0  0  0  0  0  0  0  0  0
   -1.7068   13.9019   -9.9920 H   0  0  0  0  0  0  0  0  0  0  0  0
   -1.8043   10.5359  -10.6847 H   0  0  0  0  0  0  0  0  0  0  0  0
    0.0395   10.5086  -10.6173 H   0  0  0  0  0  0  0  0  0  0  0  0
   -1.9626    9.5910   -8.6103 H   0  0  0  0  0  0  0  0  0  0  0  0
   -0.5205    8.7530   -9.3645 H   0  0  0  0  0  0  0  0  0  0  0  0
    0.9975    9.9892   -8.0625 H   0  0  0  0  0  0  0  0  0  0  0  0
   -0.0343    7.2857   -7.6379 H   0  0  0  0  0  0  0  0  0  0  0  0
    0.7293    7.4527   -6.0786 H   0  0  0  0  0  0  0  0  0  0  0  0
   -2.2958    7.1203   -6.7046 H   0  0  0  0  0  0  0  0  0  0  0  0
   -1.3107    5.9288   -4.5133 H   0  0  0  0  0  0  0  0  0  0  0  0
   -2.7536    8.3179   -4.6669 H   0  0  0  0  0  0  0  0  0  0  0  0
   -1.2217    7.9292   -3.9348 H   0  0  0  0  0  0  0  0  0  0  0  0
   -0.6051   11.5197   -6.3235 H   0  0  0  0  0  0  0  0  0  0  0  0
    0.7272   12.0145   -7.4177 H   0  0  0  0  0  0  0  0  0  0  0  0
   -2.2106   11.6820   -8.1174 H   0  0  0  0  0  0  0  0  0  0  0  0
   -1.2484   13.2249   -7.9990 H   0  0  0  0  0  0  0  0  0  0  0  0
   -7.6468    8.8819   -7.6059 H   0  0  0  0  0  0  0  0  0  0  0  0
   -8.3486   10.5470   -7.7653 H   0  0  0  0  0  0  0  0  0  0  0  0
   -9.3117    6.8288  -10.4717 H   0  0  0  0  0  0  0  0  0  0  0  0
  -10.2153    7.7830  -11.6963 H   0  0  0  0  0  0  0  0  0  0  0  0
   -8.4190    7.7932  -11.6963 H   0  0  0  0  0  0  0  0  0  0  0  0
   -6.2541   10.1108  -10.8405 H   0  0  0  0  0  0  0  0  0  0  0  0
   -7.8954   10.8651  -11.1463 H   0  0  0  0  0  0  0  0  0  0  0  0
   -6.1898   12.5035  -10.4471 H   0  0  0  0  0  0  0  0  0  0  0  0
   -7.5758   12.4082   -9.3377 H   0  0  0  0  0  0  0  0  0  0  0  0
   -3.4126    9.4298   -5.0306 H   0  0  0  0  0  0  0  0  0  0  0  0
   -3.7235    7.7182   -3.2729 H   0  0  0  0  0  0  0  0  0  0  0  0
   -8.6457   10.0992   -4.1825 H   0  0  0  0  0  0  0  0  0  0  0  0
  -10.3729    9.5963   -3.9883 H   0  0  0  0  0  0  0  0  0  0  0  0
  -10.0401   12.0581   -4.4712 H   0  0  0  0  0  0  0  0  0  0  0  0
  -10.9486   11.7066   -2.9707 H   0  0  0  0  0  0  0  0  0  0  0  0
  1  2  1  0
  2  3  1  0
  3  4  1  0
  4  5  1  0
  5  6  1  0
  6  7  1  0
  7  8  1  0
  8  9  1  0
  9 10  2  0
 10 11  1  0
 11 12  1  0
 12 13  2  0
 13 14  1  0
 14 15  1  0
 15 16  1  0
 16 17  1  0
 16 18  1  0
 18 19  1  0
 19 20  1  0
 20 21  1  0
 21 22  1  0
 22 23  1  0
 23 24  1  0
 24 25  1  0
 25 26  1  0
 25 27  1  0
 27 28  1  0
 28 29  2  0
 22 30  1  0
 30 31  1  0
 14 32  1  0
 32 33  2  0
 33 34  1  0
 34 35  1  0
 35 36  1  0
 36 37  1  0
 36 38  2  0
 36 39  2  0
 35 40  1  0
 40 41  1  0
 11 42  2  0
 42 43  1  0
 43 44  2  0
 44 45  1  0
 45 46  1  0
 45 47  1  0
 45 48  1  0
  5 49  1  0
 49 50  1  0
 50  2  1  0
 44  9  1  0
 33 12  1  0
 31 19  1  0
 41 32  1  0
 28 23  1  0
  1 51  1  0
  1 52  1  0
  1 53  1  0
  2 54  1  0
  3 55  1  0
  3 56  1  0
  4 57  1  0
  4 58  1  0
  6 59  1  0
  6 60  1  0
  7 61  1  0
  7 62  1  0
 10 63  1  0
 15 64  1  0
 15 65  1  0
 16 66  1  1
 17 67  1  0
 18 68  1  0
 18 69  1  0
 20 70  1  0
 20 71  1  0
 21 72  1  0
 21 73  1  0
 22 74  1  0
 24 75  1  0
 24 76  1  0
 25 77  1  6
 26 78  1  0
 27 79  1  0
 27 80  1  0
 30 81  1  0
 30 82  1  0
 31 83  1  0
 31 84  1  0
 34 85  1  0
 34 86  1  0
 37 87  1  0
 37 88  1  0
 37 89  1  0
 40 90  1  0
 40 91  1  0
 41 92  1  0
 41 93  1  0
 42 94  1  0
 43 95  1  0
 49 96  1  0
 49 97  1  0
 50 98  1  0
 50 99  1  0
M  END
$$$$
