
     RDKit          3D

102107  0  0  0  0  0  0  0  0999 V2000
   -2.1350    7.8720   -4.0510 O   0  0  0  0  0  0  0  0  0  0  0  0
   -3.0640    8.1970   -4.8240 C   0  0  0  0  0  0  0  0  0  0  0  0
   -4.4610    7.9120   -4.4320 C   0  0  0  0  0  0  0  0  0  0  0  0
   -4.6150    6.5740   -3.7910 C   0  0  0  0  0  0  0  0  0  0  0  0
   -5.0120    6.6380   -2.3300 C   0  0  0  0  0  0  0  0  0  0  0  0
   -5.8820    5.4670   -1.9530 C   0  0  0  0  0  0  0  0  0  0  0  0
   -7.1940    5.6480   -2.5760 N   0  0  0  0  0  0  0  0  0  0  0  0
   -8.0670    6.3470   -1.7080 C   0  0  0  0  0  0  0  0  0  0  0  0
   -8.5040    7.7070   -2.1070 C   0  0  0  0  0  0  0  0  0  0  0  0
   -8.0680    8.7960   -1.1430 C   0  0  0  0  0  0  0  0  0  0  0  0
   -8.1770   10.1040   -1.9250 C   0  0  0  0  0  0  0  0  0  0  0  0
   -9.5730   10.3160   -2.4410 C   0  0  0  0  0  0  0  0  0  0  0  0
  -10.0620    9.1480   -3.2700 C   0  0  0  0  0  0  0  0  0  0  0  0
   -9.9610    7.8820   -2.4090 C   0  0  0  0  0  0  0  0  0  0  0  0
   -7.0640    6.1150   -3.9120 C   0  0  0  0  0  0  0  0  0  0  0  0
   -5.6970    5.7830   -4.5050 C   0  0  0  0  0  0  0  0  0  0  0  0
   -2.7600    8.8250   -6.0490 N   0  0  0  0  0  0  0  0  0  0  0  0
   -1.3870    8.8260   -6.5160 C   0  0  0  0  0  0  0  0  0  0  0  0
   -0.8810   10.2430   -6.6240 C   0  0  0  0  0  0  0  0  0  0  0  0
   -1.8550   11.0150   -7.4540 C   0  0  0  0  0  0  0  0  0  0  0  0
   -3.1740   10.6490   -7.5680 C   0  0  0  0  0  0  0  0  0  0  0  0
   -3.7640   11.5670   -8.4260 C   0  0  0  0  0  0  0  0  0  0  0  0
   -5.1430   11.6750   -8.8860 C   0  0  0  0  0  0  0  0  0  0  0  0
   -5.4590   11.3370  -10.1690 C   0  0  0  0  0  0  0  0  0  0  0  0
   -6.7760   11.4250  -10.6350 C   0  0  0  0  0  0  0  0  0  0  0  0
   -7.7430   11.8640   -9.7590 C   0  0  0  0  0  0  0  0  0  0  0  0
   -9.1830   11.9840  -10.1950 C   0  0  0  0  0  0  0  0  0  0  0  0
   -9.5180   10.8510  -10.9330 F   0  0  0  0  0  0  0  0  0  0  0  0
   -9.3430   13.0620  -11.0390 F   0  0  0  0  0  0  0  0  0  0  0  0
   -9.9730   12.1360   -9.0840 F   0  0  0  0  0  0  0  0  0  0  0  0
   -7.4610   12.2160   -8.4540 C   0  0  0  0  0  0  0  0  0  0  0  0
   -8.7680   12.7870   -7.3470 S   0  0  0  0  0  0  0  0  0  0  0  0
   -8.7050   11.7910   -5.8310 C   0  0  0  0  0  0  0  0  0  0  0  0
   -7.6250   10.7400   -6.0160 C   0  0  0  0  0  0  0  0  0  0  0  0
   -8.2460    9.5160   -6.3830 N   0  0  0  0  0  0  0  0  0  0  0  0
   -7.4250    8.5280   -6.9520 C   0  0  0  0  0  0  0  0  0  0  0  0
   -7.8890    7.9210   -8.2380 C   0  0  0  0  0  0  0  0  0  0  0  0
   -8.9400    8.7380   -8.9460 C   0  0  0  0  0  0  0  0  0  0  0  0
   -9.4460    7.9390   -9.9700 F   0  0  0  0  0  0  0  0  0  0  0  0
  -10.0600    8.9790   -7.9750 C   0  0  0  0  0  0  0  0  0  0  0  0
   -9.6230    9.5320   -6.6650 C   0  0  0  0  0  0  0  0  0  0  0  0
   -6.1620   12.1110   -8.0530 C   0  0  0  0  0  0  0  0  0  0  0  0
   -2.7670   12.4230   -8.7720 N   0  0  0  0  0  0  0  0  0  0  0  0
   -1.6250   12.1320   -8.2200 N   0  0  0  0  0  0  0  0  0  0  0  0
   -0.3520   12.8120   -8.3140 C   0  0  0  0  0  0  0  0  0  0  0  0
    0.0590   13.0000   -9.7380 C   0  0  0  0  0  0  0  0  0  0  0  0
   -0.2850   11.8500  -10.6400 C   0  0  0  0  0  0  0  0  0  0  0  0
    0.0220   10.6190  -10.0790 O   0  0  0  0  0  0  0  0  0  0  0  0
   -3.7780    9.4800   -6.8680 C   0  0  0  0  0  0  0  0  0  0  0  0
   -4.7919    8.6835   -3.7211 H   0  0  0  0  0  0  0  0  0  0  0  0
   -5.0713    7.9153   -5.3472 H   0  0  0  0  0  0  0  0  0  0  0  0
   -3.6256    6.0989   -3.8640 H   0  0  0  0  0  0  0  0  0  0  0  0
   -4.1036    6.6251   -1.7099 H   0  0  0  0  0  0  0  0  0  0  0  0
   -5.5810    7.5644   -2.1626 H   0  0  0  0  0  0  0  0  0  0  0  0
   -5.4252    4.5334   -2.3131 H   0  0  0  0  0  0  0  0  0  0  0  0
   -5.9870    5.4102   -0.8595 H   0  0  0  0  0  0  0  0  0  0  0  0
   -8.9726    5.7335   -1.5913 H   0  0  0  0  0  0  0  0  0  0  0  0
   -7.4764    6.5054   -0.7936 H   0  0  0  0  0  0  0  0  0  0  0  0
   -7.9721    7.8199   -3.0632 H   0  0  0  0  0  0  0  0  0  0  0  0
   -8.7289    8.8179   -0.2639 H   0  0  0  0  0  0  0  0  0  0  0  0
   -7.0461    8.6269   -0.7727 H   0  0  0  0  0  0  0  0  0  0  0  0
   -7.9084   10.9407   -1.2634 H   0  0  0  0  0  0  0  0  0  0  0  0
   -7.4926   10.0531   -2.7847 H   0  0  0  0  0  0  0  0  0  0  0  0
  -10.2502   10.4502   -1.5846 H   0  0  0  0  0  0  0  0  0  0  0  0
   -9.5616   11.2061   -3.0871 H   0  0  0  0  0  0  0  0  0  0  0  0
  -11.1075    9.3139   -3.5690 H   0  0  0  0  0  0  0  0  0  0  0  0
   -9.4520    9.0421   -4.1792 H   0  0  0  0  0  0  0  0  0  0  0  0
  -10.5328    8.0060   -1.4775 H   0  0  0  0  0  0  0  0  0  0  0  0
  -10.3741    7.0053   -2.9293 H   0  0  0  0  0  0  0  0  0  0  0  0
   -7.8427    5.6440   -4.5299 H   0  0  0  0  0  0  0  0  0  0  0  0
   -7.1719    7.2096   -3.9006 H   0  0  0  0  0  0  0  0  0  0  0  0
   -5.5001    4.7073   -4.3865 H   0  0  0  0  0  0  0  0  0  0  0  0
   -5.6927    6.0477   -5.5727 H   0  0  0  0  0  0  0  0  0  0  0  0
   -0.7598    8.2682   -5.8050 H   0  0  0  0  0  0  0  0  0  0  0  0
   -1.3416    8.3494   -7.5063 H   0  0  0  0  0  0  0  0  0  0  0  0
   -0.8060   10.6908   -5.6221 H   0  0  0  0  0  0  0  0  0  0  0  0
    0.1164   10.2601   -7.0875 H   0  0  0  0  0  0  0  0  0  0  0  0
   -4.6665   10.9898  -10.8482 H   0  0  0  0  0  0  0  0  0  0  0  0
   -7.0305   11.1517  -11.6697 H   0  0  0  0  0  0  0  0  0  0  0  0
   -8.4610   12.4320   -4.9710 H   0  0  0  0  0  0  0  0  0  0  0  0
   -9.6783   11.3151   -5.6411 H   0  0  0  0  0  0  0  0  0  0  0  0
   -6.9311   11.0564   -6.8087 H   0  0  0  0  0  0  0  0  0  0  0  0
   -7.0603   10.6109   -5.0809 H   0  0  0  0  0  0  0  0  0  0  0  0
   -6.4389    8.9799   -7.1345 H   0  0  0  0  0  0  0  0  0  0  0  0
   -7.4272    7.7007   -6.2270 H   0  0  0  0  0  0  0  0  0  0  0  0
   -7.0215    7.8161   -8.9061 H   0  0  0  0  0  0  0  0  0  0  0  0
   -8.3461    6.9515   -7.9909 H   0  0  0  0  0  0  0  0  0  0  0  0
   -8.5310    9.6862   -9.3250 H   0  0  0  0  0  0  0  0  0  0  0  0
  -10.7653    9.6892   -8.4313 H   0  0  0  0  0  0  0  0  0  0  0  0
  -10.5155    7.9993   -7.7684 H   0  0  0  0  0  0  0  0  0  0  0  0
   -9.9566   10.5793   -6.6211 H   0  0  0  0  0  0  0  0  0  0  0  0
  -10.0716    8.8648   -5.9143 H   0  0  0  0  0  0  0  0  0  0  0  0
   -5.9102   12.3856   -7.0180 H   0  0  0  0  0  0  0  0  0  0  0  0
   -0.4356   13.7973   -7.8321 H   0  0  0  0  0  0  0  0  0  0  0  0
    0.4085   12.1963   -7.8115 H   0  0  0  0  0  0  0  0  0  0  0  0
   -0.4400   13.9011  -10.1240 H   0  0  0  0  0  0  0  0  0  0  0  0
    1.1559   13.0831   -9.7397 H   0  0  0  0  0  0  0  0  0  0  0  0
   -1.3637   11.8804  -10.8531 H   0  0  0  0  0  0  0  0  0  0  0  0
    0.3139   11.9560  -11.5565 H   0  0  0  0  0  0  0  0  0  0  0  0
    0.0037   10.6924   -9.0919 H   0  0  0  0  0  0  0  0  0  0  0  0
   -4.6017    9.8230   -6.2246 H   0  0  0  0  0  0  0  0  0  0  0  0
   -4.1661    8.7675   -7.6108 H   0  0  0  0  0  0  0  0  0  0  0  0
  1  2  2  0
  2  3  1  0
  3  4  1  0
  4  5  1  0
  5  6  1  0
  6  7  1  0
  7  8  1  0
  8  9  1  0
  9 10  1  0
 10 11  1  0
 11 12  1  0
 12 13  1  0
 13 14  1  0
  7 15  1  0
 15 16  1  0
  2 17  1  0
 17 18  1  0
 18 19  1  0
 19 20  1  0
 20 21  2  0
 21 22  1  0
 22 23  1  0
 23 24  2  0
 24 25  1  0
 25 26  2  0
 26 27  1  0
 27 28  1  0
 27 29  1  0
 27 30  1  0
 26 31  1  0
 31 32  1  0
 32 33  1  0
 33 34  1  0
 34 35  1  0
 35 36  1  0
 36 37  1  0
 37 38  1  0
 38 39  1  0
 38 40  1  0
 40 41  1  0
 31 42  2  0
 22 43  2  0
 43 44  1  0
 44 45  1  0
 45 46  1  0
 46 47  1  0
 47 48  1  0
 21 49  1  0
 16  4  1  0
 49 17  1  0
 14  9  1  0
 44 20  1  0
 42 23  1  0
 41 35  1  0
  3 50  1  0
  3 51  1  0
  4 52  1  0
  5 53  1  0
  5 54  1  0
  6 55  1  0
  6 56  1  0
  8 57  1  0
  8 58  1  0
  9 59  1  0
 10 60  1  0
 10 61  1  0
 11 62  1  0
 11 63  1  0
 12 64  1  0
 12 65  1  0
 13 66  1  0
 13 67  1  0
 14 68  1  0
 14 69  1  0
 15 70  1  0
 15 71  1  0
 16 72  1  0
 16 73  1  0
 18 74  1  0
 18 75  1  0
 19 76  1  0
 19 77  1  0
 24 78  1  0
 25 79  1  0
 33 80  1  0
 33 81  1  0
 34 82  1  0
 34 83  1  0
 36 84  1  0
 36 85  1  0
 37 86  1  0
 37 87  1  0
 38 88  1  0
 40 89  1  0
 40 90  1  0
 41 91  1  0
 41 92  1  0
 42 93  1  0
 45 94  1  0
 45 95  1  0
 46 96  1  0
 46 97  1  0
 47 98  1  0
 47 99  1  0
 48100  1  0
 49101  1  0
 49102  1  0
M  END
$$$$
