
     RDKit          3D

 95 99  0  0  0  0  0  0  0  0999 V2000
   -7.6460   12.7460   -1.4770 C   0  0  0  0  0  0  0  0  0  0  0  0
   -9.1310   12.9590   -1.5610 C   0  0  0  0  0  0  0  0  0  0  0  0
   -9.8600   11.6620   -1.2140 C   0  0  0  0  0  0  0  0  0  0  0  0
   -9.6460   10.7100   -2.3020 N   0  0  0  0  0  0  0  0  0  0  0  0
   -9.5820   11.0320   -3.5620 N   0  0  0  0  0  0  0  0  0  0  0  0
   -9.3740    9.9220   -4.3220 C   0  0  0  0  0  0  0  0  0  0  0  0
   -9.2560    9.9420   -5.7730 C   0  0  0  0  0  0  0  0  0  0  0  0
   -9.1660    8.7420   -6.4540 C   0  0  0  0  0  0  0  0  0  0  0  0
   -9.0620    8.6800   -7.8170 C   0  0  0  0  0  0  0  0  0  0  0  0
   -9.0410    9.8610   -8.5940 C   0  0  0  0  0  0  0  0  0  0  0  0
   -8.9490    9.7310  -10.0650 C   0  0  0  0  0  0  0  0  0  0  0  0
   -7.8110   10.3430  -10.4900 F   0  0  0  0  0  0  0  0  0  0  0  0
  -10.0320   10.3340  -10.6930 F   0  0  0  0  0  0  0  0  0  0  0  0
   -8.9400    8.4150  -10.4700 F   0  0  0  0  0  0  0  0  0  0  0  0
   -9.1270   11.0430   -7.9480 C   0  0  0  0  0  0  0  0  0  0  0  0
   -9.0130   12.6260   -8.7800 S   0  0  0  0  0  0  0  0  0  0  0  0
   -7.4140   12.9710   -9.4330 C   0  0  0  0  0  0  0  0  0  0  0  0
   -6.2290   13.0550   -8.5600 C   0  0  0  0  0  0  0  0  0  0  0  0
   -4.9920   12.5700   -9.0680 N   0  0  0  0  0  0  0  0  0  0  0  0
   -4.8670   11.1210   -8.8490 C   0  0  0  0  0  0  0  0  0  0  0  0
   -3.3980   10.7960   -8.7040 C   0  0  0  0  0  0  0  0  0  0  0  0
   -2.6640   11.4540   -9.8280 C   0  0  0  0  0  0  0  0  0  0  0  0
   -3.6180   11.8580  -10.9250 C   0  0  0  0  0  0  0  0  0  0  0  0
   -4.5470   12.9410  -10.3460 C   0  0  0  0  0  0  0  0  0  0  0  0
   -9.2350   11.0720   -6.5300 C   0  0  0  0  0  0  0  0  0  0  0  0
   -9.3130    8.8710   -3.4390 C   0  0  0  0  0  0  0  0  0  0  0  0
   -9.4820    9.3690   -2.1780 C   0  0  0  0  0  0  0  0  0  0  0  0
   -9.4740    8.5630   -0.9610 C   0  0  0  0  0  0  0  0  0  0  0  0
   -8.9630    7.1500   -1.1950 C   0  0  0  0  0  0  0  0  0  0  0  0
   -8.2900    6.9620   -2.4370 N   0  0  0  0  0  0  0  0  0  0  0  0
   -7.0450    6.4090   -2.6800 C   0  0  0  0  0  0  0  0  0  0  0  0
   -6.3180    6.3900   -1.5240 O   0  0  0  0  0  0  0  0  0  0  0  0
   -6.2640    5.8510   -3.7340 C   0  0  0  0  0  0  0  0  0  0  0  0
   -5.1400    6.5680   -4.4020 C   0  0  0  0  0  0  0  0  0  0  0  0
   -4.1740    5.5990   -4.9830 C   0  0  0  0  0  0  0  0  0  0  0  0
   -3.2880    6.1350   -6.0510 C   0  0  0  0  0  0  0  0  0  0  0  0
   -3.3260    7.6310   -5.9250 N   0  0  0  0  0  0  0  0  0  0  0  0
   -2.1670    8.2360   -5.4440 C   0  0  0  0  0  0  0  0  0  0  0  0
   -1.1900    7.4160   -5.0680 O   0  0  0  0  0  0  0  0  0  0  0  0
   -1.7870    9.6200   -5.2590 C   0  0  0  0  0  0  0  0  0  0  0  0
   -1.1020   10.3460   -6.2310 N   0  0  0  0  0  0  0  0  0  0  0  0
   -0.4400    9.7050   -7.2890 C   0  0  0  0  0  0  0  0  0  0  0  0
   -1.3430   11.7250   -6.3840 C   0  0  0  0  0  0  0  0  0  0  0  0
   -4.5910    8.1790   -6.2810 C   0  0  0  0  0  0  0  0  0  0  0  0
   -5.5780    7.7190   -5.2130 C   0  0  0  0  0  0  0  0  0  0  0  0
   -9.1190    7.4330   -3.6210 C   0  0  0  0  0  0  0  0  0  0  0  0
   -7.3410   12.7023   -0.4210 H   0  0  0  0  0  0  0  0  0  0  0  0
   -7.3824   11.8009   -1.9742 H   0  0  0  0  0  0  0  0  0  0  0  0
   -7.1274   13.5790   -1.9742 H   0  0  0  0  0  0  0  0  0  0  0  0
   -9.4278   13.7458   -0.8518 H   0  0  0  0  0  0  0  0  0  0  0  0
   -9.3972   13.2628   -2.5842 H   0  0  0  0  0  0  0  0  0  0  0  0
   -9.4603   11.2503   -0.2755 H   0  0  0  0  0  0  0  0  0  0  0  0
  -10.9353   11.8545   -1.0850 H   0  0  0  0  0  0  0  0  0  0  0  0
   -9.1784    7.8039   -5.8797 H   0  0  0  0  0  0  0  0  0  0  0  0
   -8.9940    7.7008   -8.3135 H   0  0  0  0  0  0  0  0  0  0  0  0
   -7.2022   12.1817  -10.1693 H   0  0  0  0  0  0  0  0  0  0  0  0
   -7.5211   14.0066   -9.7880 H   0  0  0  0  0  0  0  0  0  0  0  0
   -6.0850   14.1152   -8.3044 H   0  0  0  0  0  0  0  0  0  0  0  0
   -6.4606   12.3888   -7.7159 H   0  0  0  0  0  0  0  0  0  0  0  0
   -5.4050   10.8340   -7.9335 H   0  0  0  0  0  0  0  0  0  0  0  0
   -5.2992   10.5677   -9.6958 H   0  0  0  0  0  0  0  0  0  0  0  0
   -3.0251   11.1766   -7.7417 H   0  0  0  0  0  0  0  0  0  0  0  0
   -3.2437    9.7073   -8.7335 H   0  0  0  0  0  0  0  0  0  0  0  0
   -2.1504   12.3496   -9.4484 H   0  0  0  0  0  0  0  0  0  0  0  0
   -1.9345   10.7407  -10.2391 H   0  0  0  0  0  0  0  0  0  0  0  0
   -3.0580   12.2609  -11.7818 H   0  0  0  0  0  0  0  0  0  0  0  0
   -4.1991   10.9921  -11.2751 H   0  0  0  0  0  0  0  0  0  0  0  0
   -3.9973   13.8913  -10.2769 H   0  0  0  0  0  0  0  0  0  0  0  0
   -5.4178   13.0560  -11.0081 H   0  0  0  0  0  0  0  0  0  0  0  0
   -9.3043   12.0470   -6.0255 H   0  0  0  0  0  0  0  0  0  0  0  0
   -8.8263    9.0528   -0.2190 H   0  0  0  0  0  0  0  0  0  0  0  0
  -10.5127    8.4858   -0.6073 H   0  0  0  0  0  0  0  0  0  0  0  0
   -8.2635    6.8991   -0.3840 H   0  0  0  0  0  0  0  0  0  0  0  0
   -9.8482    6.4974   -1.2175 H   0  0  0  0  0  0  0  0  0  0  0  0
   -5.8292    4.9262   -3.3270 H   0  0  0  0  0  0  0  0  0  0  0  0
   -7.0034    5.8122   -4.5475 H   0  0  0  0  0  0  0  0  0  0  0  0
   -4.5329    7.1012   -3.6556 H   0  0  0  0  0  0  0  0  0  0  0  0
   -3.5351    5.2284   -4.1679 H   0  0  0  0  0  0  0  0  0  0  0  0
   -4.7830    4.8180   -5.4617 H   0  0  0  0  0  0  0  0  0  0  0  0
   -2.2604    5.7679   -5.9122 H   0  0  0  0  0  0  0  0  0  0  0  0
   -3.6242    5.8108   -7.0469 H   0  0  0  0  0  0  0  0  0  0  0  0
   -2.7205   10.1699   -5.0687 H   0  0  0  0  0  0  0  0  0  0  0  0
   -1.0315    9.5412   -4.4633 H   0  0  0  0  0  0  0  0  0  0  0  0
    0.2948    8.9935   -6.8844 H   0  0  0  0  0  0  0  0  0  0  0  0
   -1.1727    9.1643   -7.9061 H   0  0  0  0  0  0  0  0  0  0  0  0
    0.0769   10.4547   -7.9061 H   0  0  0  0  0  0  0  0  0  0  0  0
   -1.4251   12.1950   -5.3929 H   0  0  0  0  0  0  0  0  0  0  0  0
   -0.5113   12.1832   -6.9393 H   0  0  0  0  0  0  0  0  0  0  0  0
   -2.2808   11.8739   -6.9393 H   0  0  0  0  0  0  0  0  0  0  0  0
   -4.5373    9.2775   -6.3010 H   0  0  0  0  0  0  0  0  0  0  0  0
   -4.9025    7.8440   -7.2814 H   0  0  0  0  0  0  0  0  0  0  0  0
   -5.7604    8.5639   -4.5327 H   0  0  0  0  0  0  0  0  0  0  0  0
   -6.4762    7.3853   -5.7533 H   0  0  0  0  0  0  0  0  0  0  0  0
   -8.5848    7.2367   -4.5623 H   0  0  0  0  0  0  0  0  0  0  0  0
  -10.0814    6.9027   -3.6719 H   0  0  0  0  0  0  0  0  0  0  0  0
  1  2  1  0
  2  3  1  0
  3  4  1  0
  4  5  1  0
  5  6  2  0
  6  7  1  0
  7  8  2  0
  8  9  1  0
  9 10  2  0
 10 11  1  0
 11 12  1  0
 11 13  1  0
 11 14  1  0
 10 15  1  0
 15 16  1  0
 16 17  1  0
 17 18  1  0
 18 19  1  0
 19 20  1  0
 20 21  1  0
 21 22  1  0
 22 23  1  0
 23 24  1  0
 15 25  2  0
  6 26  1  0
 26 27  2  0
 27 28  1  0
 28 29  1  0
 29 30  1  0
 30 31  1  0
 31 32  2  0
 31 33  1  0
 33 34  1  0
 34 35  1  0
 35 36  1  0
 36 37  1  0
 37 38  1  0
 38 39  2  0
 38 40  1  0
 40 41  1  0
 41 42  1  0
 41 43  1  0
 37 44  1  0
 44 45  1  0
 30 46  1  0
 27  4  1  0
 45 34  1  0
 25  7  1  0
 46 26  1  0
 24 19  1  0
  1 47  1  0
  1 48  1  0
  1 49  1  0
  2 50  1  0
  2 51  1  0
  3 52  1  0
  3 53  1  0
  8 54  1  0
  9 55  1  0
 17 56  1  0
 17 57  1  0
 18 58  1  0
 18 59  1  0
 20 60  1  0
 20 61  1  0
 21 62  1  0
 21 63  1  0
 22 64  1  0
 22 65  1  0
 23 66  1  0
 23 67  1  0
 24 68  1  0
 24 69  1  0
 25 70  1  0
 28 71  1  0
 28 72  1  0
 29 73  1  0
 29 74  1  0
 33 75  1  0
 33 76  1  0
 34 77  1  0
 35 78  1  0
 35 79  1  0
 36 80  1  0
 36 81  1  0
 40 82  1  0
 40 83  1  0
 42 84  1  0
 42 85  1  0
 42 86  1  0
 43 87  1  0
 43 88  1  0
 43 89  1  0
 44 90  1  0
 44 91  1  0
 45 92  1  0
 45 93  1  0
 46 94  1  0
 46 95  1  0
M  END
$$$$
