
     RDKit          3D

 46 51  0  0  0  0  0  0  0  0999 V2000
   -1.7060   15.1390   -7.1270 C   0  0  0  0  0  0  0  0  0  0  0  0
   -3.7040   13.5640   -7.5910 C   0  0  0  0  0  0  0  0  0  0  0  0
   -2.9300   12.3180   -7.8940 C   0  0  0  0  0  0  0  0  0  0  0  0
   -3.5900   11.4350   -8.9320 C   0  0  0  0  0  0  0  0  0  0  0  0
   -5.4870    9.1100   -7.1030 C   0  0  0  0  0  0  0  0  0  0  0  0
   -6.5270    9.6140   -7.8830 C   0  0  0  0  0  0  0  0  0  0  0  0
   -5.9510   10.5540   -8.6790 C   0  0  0  0  0  0  0  0  0  0  0  0
   -2.9060   14.1240   -5.2560 C   0  0  0  0  0  0  0  0  0  0  0  0
   -6.6690   11.3760   -9.7020 C   0  0  0  0  0  0  0  0  0  0  0  0
   -8.1630   11.0860   -9.6240 C   0  0  0  0  0  0  0  0  0  0  0  0
   -7.9620    9.2880   -7.9550 C   0  0  0  0  0  0  0  0  0  0  0  0
   -5.5160    8.0700   -6.0690 C   0  0  0  0  0  0  0  0  0  0  0  0
   -2.6560   15.3010   -4.3640 C   0  0  0  0  0  0  0  0  0  0  0  0
   -4.5570    7.0710   -6.0980 C   0  0  0  0  0  0  0  0  0  0  0  0
   -4.5520    6.0720   -5.1420 C   0  0  0  0  0  0  0  0  0  0  0  0
   -5.5010    6.0750   -4.1440 C   0  0  0  0  0  0  0  0  0  0  0  0
   -6.4890    7.0680   -4.0850 C   0  0  0  0  0  0  0  0  0  0  0  0
   -6.4870    8.0650   -5.0640 C   0  0  0  0  0  0  0  0  0  0  0  0
   -7.4910    7.0610   -3.0680 C   0  0  0  0  0  0  0  0  0  0  0  0
   -8.2990    7.1340   -2.2080 C   0  0  0  0  0  0  0  0  0  0  0  0
   -9.2190    7.2370   -1.1170 C   0  0  0  0  0  0  0  0  0  0  0  0
   -0.8090   15.5090   -5.9330 C   0  0  0  0  0  0  0  0  0  0  0  0
  -10.3060    8.1040   -1.2000 C   0  0  0  0  0  0  0  0  0  0  0  0
  -11.2110    8.2000   -0.1420 C   0  0  0  0  0  0  0  0  0  0  0  0
  -11.0010    7.4180    0.9910 C   0  0  0  0  0  0  0  0  0  0  0  0
   -9.9180    6.5560    1.0740 C   0  0  0  0  0  0  0  0  0  0  0  0
   -9.0270    6.4690    0.0290 C   0  0  0  0  0  0  0  0  0  0  0  0
  -12.4060    9.1350   -0.2210 C   0  0  0  0  0  0  0  0  0  0  0  0
  -12.3660   11.5980   -0.2640 C   0  0  0  0  0  0  0  0  0  0  0  0
  -11.1020   12.4770   -0.1950 C   0  0  0  0  0  0  0  0  0  0  0  0
  -11.2160   13.8590   -0.0400 C   0  0  0  0  0  0  0  0  0  0  0  0
  -10.0850   14.6620    0.0210 C   0  0  0  0  0  0  0  0  0  0  0  0
   -8.8240   14.1020   -0.0720 C   0  0  0  0  0  0  0  0  0  0  0  0
   -8.6960   12.7340   -0.2310 C   0  0  0  0  0  0  0  0  0  0  0  0
   -9.8250   11.9230   -0.2920 C   0  0  0  0  0  0  0  0  0  0  0  0
  -11.0070    9.1740   -9.2040 C   0  0  0  0  0  0  0  0  0  0  0  0
   -4.6430   10.5960   -8.3680 N   0  0  0  0  0  0  0  0  0  0  0  0
   -3.0100   14.5580   -6.6450 N   0  0  0  0  0  0  0  0  0  0  0  0
   -4.3240    9.7050   -7.3880 N   0  0  0  0  0  0  0  0  0  0  0  0
   -8.3450    9.6510   -9.3390 N   0  0  0  0  0  0  0  0  0  0  0  0
  -12.1270   10.3450   -0.9900 N   0  0  0  0  0  0  0  0  0  0  0  0
   -1.5710   16.1480   -4.8460 O   0  0  0  0  0  0  0  0  0  0  0  0
   -9.2300    7.4740   -9.9960 O   0  0  0  0  0  0  0  0  0  0  0  0
   -9.6830    9.4300  -11.3990 O   0  0  0  0  0  0  0  0  0  0  0  0
   -9.5440    8.8680  -10.0950 S   0  0  0  0  0  0  0  0  0  0  0  0
   -5.4820    4.7870   -2.9400 Cl  0  0  0  0  0  0  0  0  0  0  0  0
  3  2  1  0
  4  3  1  0
  6  5  1  0
  7  6  2  0
  9  7  1  0
 10  9  1  0
 11  6  1  0
 12  5  1  0
 13  8  1  0
 14 12  2  0
 15 14  1  0
 16 15  2  0
 17 16  1  0
 18 12  1  0
 18 17  2  0
 19 17  1  0
 20 19  3  0
 21 20  1  0
 22  1  1  0
 23 21  2  0
 24 23  1  0
 25 24  2  0
 26 25  1  0
 27 26  2  0
 27 21  1  0
 28 24  1  0
 30 29  1  0
 31 30  2  0
 32 31  1  0
 33 32  2  0
 34 33  1  0
 35 30  1  0
 35 34  2  0
 37  7  1  0
 37  4  1  0
 38  2  1  0
 38  1  1  0
 38  8  1  0
 39  5  2  0
 39 37  1  0
 40 11  1  0
 40 10  1  0
 41 28  1  0
 41 29  1  0
 42 22  1  0
 42 13  1  0
 45 36  1  0
 45 44  2  0
 45 43  2  0
 45 40  1  0
 46 16  1  0
M  END
$$$$
