
     RDKit          3D

 46 51  0  0  0  0  0  0  0  0999 V2000
   -5.4020    8.6790   -6.1960 C   0  0  0  0  0  0  0  0  0  0  0  0
   -6.0040    5.7760   -3.0500 C   0  0  0  0  0  0  0  0  0  0  0  0
   -6.6250    8.6310   -5.5180 C   0  0  0  0  0  0  0  0  0  0  0  0
   -9.0250    9.3910   -3.6100 C   0  0  0  0  0  0  0  0  0  0  0  0
   -8.2650   10.1440   -2.5420 C   0  0  0  0  0  0  0  0  0  0  0  0
  -10.2610   11.2350   -1.6260 C   0  0  0  0  0  0  0  0  0  0  0  0
   -6.8400    7.7000   -4.4940 C   0  0  0  0  0  0  0  0  0  0  0  0
  -10.7000   12.2800   -0.6240 C   0  0  0  0  0  0  0  0  0  0  0  0
  -10.0300   13.5830   -0.8660 C   0  0  0  0  0  0  0  0  0  0  0  0
   -8.5280   13.4590   -0.7430 C   0  0  0  0  0  0  0  0  0  0  0  0
   -8.0630   12.0660   -1.0780 C   0  0  0  0  0  0  0  0  0  0  0  0
   -5.8110    6.7960   -4.1440 C   0  0  0  0  0  0  0  0  0  0  0  0
   -5.1890    9.6740   -7.3020 C   0  0  0  0  0  0  0  0  0  0  0  0
   -6.1160   10.1470   -8.2830 C   0  0  0  0  0  0  0  0  0  0  0  0
   -5.4050   11.0150   -9.0440 C   0  0  0  0  0  0  0  0  0  0  0  0
   -4.6060    6.8600   -4.8410 C   0  0  0  0  0  0  0  0  0  0  0  0
   -5.9480   11.7680  -10.2080 C   0  0  0  0  0  0  0  0  0  0  0  0
   -7.3160   11.2810  -10.5910 C   0  0  0  0  0  0  0  0  0  0  0  0
   -7.5700    9.8790   -8.5980 C   0  0  0  0  0  0  0  0  0  0  0  0
   -4.4020    7.7790   -5.8490 C   0  0  0  0  0  0  0  0  0  0  0  0
   -2.9940   11.8400   -9.0110 C   0  0  0  0  0  0  0  0  0  0  0  0
   -2.9000   13.1980   -8.3490 C   0  0  2  0  0  0  0  0  0  0  0  0
   -2.3460   13.0470   -6.9330 C   0  0  0  0  0  0  0  0  0  0  0  0
   -2.3460   15.6060   -6.7720 C   0  0  0  0  0  0  0  0  0  0  0  0
   -1.7630   16.7710   -5.9490 C   0  0  0  0  0  0  0  0  0  0  0  0
   -1.5860   16.4100   -4.4800 C   0  0  0  0  0  0  0  0  0  0  0  0
   -2.7310   15.5190   -4.0440 C   0  0  0  0  0  0  0  0  0  0  0  0
   -2.7550   14.2000   -4.8220 C   0  0  0  0  0  0  0  0  0  0  0  0
   -1.4140   17.6380   -3.5890 C   0  0  0  0  0  0  0  0  0  0  0  0
   -2.4890   18.5550   -3.3250 C   0  0  0  0  0  0  0  0  0  0  0  0
   -2.2900   19.6690   -2.5090 C   0  0  0  0  0  0  0  0  0  0  0  0
   -1.0410   19.8870   -1.9490 C   0  0  0  0  0  0  0  0  0  0  0  0
    0.0030   19.0150   -2.1920 C   0  0  0  0  0  0  0  0  0  0  0  0
   -0.1810   17.9070   -3.0020 C   0  0  0  0  0  0  0  0  0  0  0  0
   -4.8850   18.8960   -3.4250 C   0  0  0  0  0  0  0  0  0  0  0  0
   -5.0470    4.8250   -3.0480 F   0  0  0  0  0  0  0  0  0  0  0  0
   -6.0040    6.3430   -1.7920 F   0  0  0  0  0  0  0  0  0  0  0  0
   -7.2270    5.1180   -3.1700 F   0  0  0  0  0  0  0  0  0  0  0  0
   -8.8770   11.4290   -2.1290 N   0  0  0  0  0  0  0  0  0  0  0  0
   -4.1360   11.0590   -8.5470 N   0  0  0  0  0  0  0  0  0  0  0  0
   -3.9750   10.2350   -7.4700 N   0  0  0  0  0  0  0  0  0  0  0  0
   -8.1770   10.8990   -9.4600 N   0  0  0  0  0  0  0  0  0  0  0  0
   -2.0910   14.2830   -6.1430 N   0  0  0  0  0  0  0  0  0  0  0  0
   -4.2490   13.7050   -8.3380 O   0  0  0  0  0  0  0  0  0  0  0  0
   -3.6840   18.2530   -3.9280 O   0  0  0  0  0  0  0  0  0  0  0  0
   -8.4400    7.6750   -3.6410 S   0  0  0  0  0  0  0  0  0  0  0  0
  3  1  2  0
  5  4  1  0
  7  3  1  0
  8  6  1  0
  9  8  1  0
 10  9  1  0
 11 10  1  0
 12  7  2  0
 12  2  1  0
 13  1  1  0
 14 13  1  0
 15 14  2  0
 16 12  1  0
 17 15  1  0
 18 17  1  0
 19 14  1  0
 20  1  1  0
 20 16  2  0
 22 21  1  0
 23 22  1  0
 25 24  1  0
 26 25  1  0
 27 26  1  0
 28 27  1  0
 29 26  1  0
 30 29  2  0
 31 30  1  0
 32 31  2  0
 33 32  1  0
 34 33  2  0
 34 29  1  0
 36  2  1  0
 37  2  1  0
 38  2  1  0
 39  5  1  0
 39 11  1  0
 39  6  1  0
 40 21  1  0
 40 15  1  0
 41 13  2  0
 41 40  1  0
 42 19  1  0
 42 18  1  0
 43 24  1  0
 43 23  1  0
 43 28  1  0
 22 44  1  1
 45 35  1  0
 45 30  1  0
 46  7  1  0
 46  4  1  0
M  CHG  3  39   1  42   1  43   1
M  END
$$$$
