
     RDKit          3D

 47 52  0  0  0  0  0  0  0  0999 V2000
  -12.0710    7.5920    2.4800 Cl  0  0  0  0  0  0  0  0  0  0  0  0
  -10.9670    7.4800    1.1520 C   0  0  0  0  0  0  0  0  0  0  0  0
  -11.2490    8.1430   -0.0490 C   0  0  0  0  0  0  0  0  0  0  0  0
  -12.5100    8.9610   -0.2290 C   0  0  0  0  0  0  0  0  0  0  0  0
  -12.2950   10.3980    0.0220 N   0  0  0  0  0  0  0  0  0  0  0  0
  -11.7900   11.1170   -1.1860 C   0  0  0  0  0  0  0  0  0  0  0  0
  -10.5070   11.8760   -0.9260 C   0  0  0  0  0  0  0  0  0  0  0  0
  -10.5000   13.0250   -0.1380 C   0  0  0  0  0  0  0  0  0  0  0  0
   -9.3170   13.7160    0.0910 C   0  0  0  0  0  0  0  0  0  0  0  0
   -8.1340   13.2690   -0.4610 C   0  0  0  0  0  0  0  0  0  0  0  0
   -8.1280   12.1260   -1.2480 C   0  0  0  0  0  0  0  0  0  0  0  0
   -9.3090   11.4360   -1.4780 C   0  0  0  0  0  0  0  0  0  0  0  0
  -10.3180    8.0180   -1.0820 C   0  0  0  0  0  0  0  0  0  0  0  0
   -9.8150    6.7260    1.3230 C   0  0  0  0  0  0  0  0  0  0  0  0
   -8.9150    6.6240    0.2840 C   0  0  0  0  0  0  0  0  0  0  0  0
   -9.1580    7.2650   -0.9230 C   0  0  0  0  0  0  0  0  0  0  0  0
   -8.2280    7.1490   -1.9980 C   0  0  0  0  0  0  0  0  0  0  0  0
   -7.4070    7.0470   -2.8520 C   0  0  0  0  0  0  0  0  0  0  0  0
   -6.4180    7.0240   -3.8800 C   0  0  0  0  0  0  0  0  0  0  0  0
   -6.4050    8.0160   -4.8520 C   0  0  0  0  0  0  0  0  0  0  0  0
   -5.4600    6.0190   -3.9480 C   0  0  0  0  0  0  0  0  0  0  0  0
   -5.4610    4.7990   -2.7660 Cl  0  0  0  0  0  0  0  0  0  0  0  0
   -4.5130    5.9970   -4.9540 C   0  0  0  0  0  0  0  0  0  0  0  0
   -4.5140    6.9890   -5.9150 C   0  0  0  0  0  0  0  0  0  0  0  0
   -5.4620    8.0080   -5.8700 C   0  0  0  0  0  0  0  0  0  0  0  0
   -5.4710    9.0740   -6.8880 C   0  0  0  0  0  0  0  0  0  0  0  0
   -4.3430    9.7370   -7.1390 N   0  0  0  0  0  0  0  0  0  0  0  0
   -6.5350    9.5510   -7.6900 C   0  0  0  0  0  0  0  0  0  0  0  0
   -7.9780    9.1530   -7.7890 C   0  0  0  0  0  0  0  0  0  0  0  0
   -8.5150    9.6750   -9.0570 N   0  0  0  0  0  0  0  0  0  0  0  0
   -9.3730    8.8340  -10.1430 S   0  0  0  0  0  0  0  0  0  0  0  0
   -8.9350    9.2570  -11.4320 O   0  0  0  0  0  0  0  0  0  0  0  0
   -9.2400    7.4560   -9.7940 O   0  0  0  0  0  0  0  0  0  0  0  0
  -11.0540    9.2960   -9.9440 C   0  0  0  0  0  0  0  0  0  0  0  0
   -8.2350   11.1160   -9.3200 C   0  0  0  0  0  0  0  0  0  0  0  0
   -6.7330   11.3490   -9.4670 C   0  0  0  0  0  0  0  0  0  0  0  0
   -5.9950   10.5370   -8.4470 C   0  0  0  0  0  0  0  0  0  0  0  0
   -4.6900   10.6340   -8.1080 N   0  0  0  0  0  0  0  0  0  0  0  0
   -3.6750   11.5330   -8.6220 C   0  0  0  0  0  0  0  0  0  0  0  0
   -3.8810   12.9370   -8.1100 C   0  0  0  0  0  0  0  0  0  0  0  0
   -2.9500   13.3010   -6.9810 C   0  0  0  0  0  0  0  0  0  0  0  0
   -2.8450   14.8070   -6.8210 N   0  0  0  0  0  0  0  0  0  0  0  0
   -3.3670   15.2550   -5.5050 C   0  0  0  0  0  0  0  0  0  0  0  0
   -2.2950   15.1300   -4.4430 C   0  0  0  0  0  0  0  0  0  0  0  0
   -1.1820   16.0310   -4.6780 O   0  0  0  0  0  0  0  0  0  0  0  0
   -1.1030   16.4340   -6.0650 C   0  0  0  0  0  0  0  0  0  0  0  0
   -1.4020   15.2840   -7.0000 C   0  0  0  0  0  0  0  0  0  0  0  0
  2  1  1  0
  3  2  2  0
  4  3  1  0
  5  4  1  0
  6  5  1  0
  7  6  1  0
  8  7  2  0
  9  8  1  0
 10  9  2  0
 11 10  1  0
 12 11  2  0
 12  7  1  0
 13  3  1  0
 14  2  1  0
 15 14  2  0
 16 15  1  0
 16 13  2  0
 17 16  1  0
 18 17  3  0
 19 18  1  0
 20 19  2  0
 21 19  1  0
 22 21  1  0
 23 21  2  0
 24 23  1  0
 25 20  1  0
 25 24  2  0
 26 25  1  0
 27 26  2  0
 28 26  1  0
 29 28  1  0
 30 29  1  0
 31 30  1  0
 32 31  2  0
 33 31  2  0
 34 31  1  0
 35 30  1  0
 36 35  1  0
 37 28  2  0
 37 36  1  0
 38 37  1  0
 38 27  1  0
 39 38  1  0
 40 39  1  0
 41 40  1  0
 42 41  1  0
 43 42  1  0
 44 43  1  0
 45 44  1  0
 46 45  1  0
 47 42  1  0
 47 46  1  0
M  CHG  2   5   1  42   1
M  END
$$$$
