
     RDKit          3D

 46 50  0  0  0  0  0  0  0  0999 V2000
   -8.1250    7.6180   -3.3450 C   0  0  0  0  0  0  0  0  0  0  0  0
   -9.7240   11.3390   -1.0550 C   0  0  0  0  0  0  0  0  0  0  0  0
   -8.5350    9.9700   -2.8340 C   0  0  0  0  0  0  0  0  0  0  0  0
   -9.7700   12.3730   -0.1370 C   0  0  0  0  0  0  0  0  0  0  0  0
   -6.8530    7.5930   -4.1660 C   0  0  0  0  0  0  0  0  0  0  0  0
   -6.7000    8.4790   -5.2260 C   0  0  0  0  0  0  0  0  0  0  0  0
   -5.5490    8.4990   -5.9910 C   0  0  0  0  0  0  0  0  0  0  0  0
   -4.5320    7.6040   -5.7030 C   0  0  0  0  0  0  0  0  0  0  0  0
   -4.6630    6.7160   -4.6520 C   0  0  0  0  0  0  0  0  0  0  0  0
   -5.8120    6.6970   -3.8740 C   0  0  0  0  0  0  0  0  0  0  0  0
   -8.6570   13.1640    0.0030 C   0  0  0  0  0  0  0  0  0  0  0  0
   -5.9230    5.7130   -2.7420 C   0  0  0  0  0  0  0  0  0  0  0  0
   -7.5130   12.9750   -0.7260 C   0  0  0  0  0  0  0  0  0  0  0  0
   -5.4660    9.4490   -7.1070 C   0  0  0  0  0  0  0  0  0  0  0  0
   -5.9320   10.6970   -8.8480 C   0  0  0  0  0  0  0  0  0  0  0  0
   -6.4930    9.8160   -8.0010 C   0  0  0  0  0  0  0  0  0  0  0  0
   -7.4850   11.9390   -1.6400 C   0  0  0  0  0  0  0  0  0  0  0  0
   -7.9170    9.4020   -8.0930 C   0  0  0  0  0  0  0  0  0  0  0  0
   -8.1380   11.2800   -9.7490 C   0  0  0  0  0  0  0  0  0  0  0  0
   -6.6430   11.3680   -9.9770 C   0  0  0  0  0  0  0  0  0  0  0  0
   -8.5840   11.1060   -1.8180 C   0  0  0  0  0  0  0  0  0  0  0  0
  -11.0700    9.2090   -9.9220 C   0  0  0  0  0  0  0  0  0  0  0  0
   -3.6460   11.6760   -9.0750 C   0  0  0  0  0  0  0  0  0  0  0  0
   -4.1150   13.1550   -9.0990 C   0  0  0  0  0  0  0  0  0  0  0  0
   -3.9430   13.8030   -7.7640 C   0  0  0  0  0  0  0  0  0  0  0  0
   -1.6960   14.6610   -7.9560 C   0  0  0  0  0  0  0  0  0  0  0  0
   -1.8730   16.0300   -7.3360 C   0  0  0  0  0  0  0  0  0  0  0  0
   -1.5040   15.8650   -5.8890 C   0  0  0  0  0  0  0  0  0  0  0  0
   -2.5500   14.9880   -5.2370 C   0  0  0  0  0  0  0  0  0  0  0  0
   -2.4530   13.6260   -5.8300 C   0  0  0  0  0  0  0  0  0  0  0  0
   -1.2310   17.1680   -5.1530 C   0  0  0  0  0  0  0  0  0  0  0  0
   -1.6650   17.0460   -3.6920 C   0  0  0  0  0  0  0  0  0  0  0  0
   -2.0070   18.3150   -5.8020 C   0  0  0  0  0  0  0  0  0  0  0  0
    0.2540   17.4690   -5.2090 C   0  0  0  0  0  0  0  0  0  0  0  0
   -8.6880   14.1860    0.9080 F   0  0  0  0  0  0  0  0  0  0  0  0
   -6.0960    6.3140   -1.5350 F   0  0  0  0  0  0  0  0  0  0  0  0
   -6.9670    4.8790   -2.9050 F   0  0  0  0  0  0  0  0  0  0  0  0
   -4.8480    4.9290   -2.6320 F   0  0  0  0  0  0  0  0  0  0  0  0
   -8.1100    8.6570   -2.2990 N   0  0  0  0  0  0  0  0  0  0  0  0
   -4.3210   10.0700   -7.3970 N   0  0  0  0  0  0  0  0  0  0  0  0
   -4.6420   10.8400   -8.4860 N   0  0  0  0  0  0  0  0  0  0  0  0
   -8.5290    9.8970   -9.3220 N   0  0  0  0  0  0  0  0  0  0  0  0
   -2.5910   13.6490   -7.3230 N   0  0  0  0  0  0  0  0  0  0  0  0
   -9.0230    7.6390  -10.0850 O   0  0  0  0  0  0  0  0  0  0  0  0
   -9.1600    9.5310  -11.6430 O   0  0  0  0  0  0  0  0  0  0  0  0
   -9.3860    8.9920  -10.3420 S   0  0  0  0  0  0  0  0  0  0  0  0
  4  2  2  0
  5  1  1  0
  6  5  2  0
  7  6  1  0
  8  7  2  0
  9  8  1  0
 10  5  1  0
 10  9  2  0
 11  4  1  0
 12 10  1  0
 13 11  2  0
 14  7  1  0
 16 15  2  0
 16 14  1  0
 17 13  1  0
 18 16  1  0
 20 15  1  0
 20 19  1  0
 21  3  1  0
 21 17  2  0
 21  2  1  0
 24 23  1  0
 25 24  1  0
 27 26  1  0
 28 27  1  0
 29 28  1  0
 30 29  1  0
 31 28  1  0
 32 31  1  0
 33 31  1  0
 34 31  1  0
 35 11  1  0
 36 12  1  0
 37 12  1  0
 38 12  1  0
 39  3  1  0
 39  1  1  0
 40 14  2  0
 41 15  1  0
 41 40  1  0
 41 23  1  0
 42 18  1  0
 42 19  1  0
 43 30  1  0
 43 26  1  0
 43 25  1  0
 46 22  1  0
 46 45  2  0
 46 44  2  0
 46 42  1  0
M  END
$$$$
