
     RDKit          3D

 49 54  0  0  0  0  0  0  0  0999 V2000
   -8.2280   11.3550   -2.3350 N   0  0  0  0  0  0  0  0  0  0  0  0
   -7.0990   12.0490   -1.6970 C   0  0  0  0  0  0  0  0  0  0  0  0
   -8.6520   13.7700   -0.8230 C   0  0  0  0  0  0  0  0  0  0  0  0
   -9.8090   12.9910   -1.3880 C   0  0  0  0  0  0  0  0  0  0  0  0
   -9.4230   11.5200   -1.5000 C   0  0  0  0  0  0  0  0  0  0  0  0
   -7.9230    9.9210   -2.5740 C   0  0  0  0  0  0  0  0  0  0  0  0
   -8.9780    9.2170   -3.4300 C   0  0  0  0  0  0  0  0  0  0  0  0
   -6.0050    6.5090   -3.9320 C   0  0  0  0  0  0  0  0  0  0  0  0
   -4.7890    6.5340   -4.6040 C   0  0  0  0  0  0  0  0  0  0  0  0
   -4.5630    7.3930   -5.6600 C   0  0  0  0  0  0  0  0  0  0  0  0
   -5.5620    8.2640   -6.0770 C   0  0  0  0  0  0  0  0  0  0  0  0
   -6.7930    8.2590   -5.4170 C   0  0  0  0  0  0  0  0  0  0  0  0
   -7.0260    7.3930   -4.3500 C   0  0  0  0  0  0  0  0  0  0  0  0
   -7.3710   13.5510   -1.5720 C   0  0  0  0  0  0  0  0  0  0  0  0
   -6.1770    5.5470   -2.7950 C   0  0  0  0  0  0  0  0  0  0  0  0
   -5.3510    9.2030   -7.1960 C   0  0  0  0  0  0  0  0  0  0  0  0
   -4.5440   10.5470   -8.7410 C   0  0  0  0  0  0  0  0  0  0  0  0
   -4.1490    9.7250   -7.7410 C   0  0  0  0  0  0  0  0  0  0  0  0
   -2.7060    9.5160   -7.4110 C   0  0  0  0  0  0  0  0  0  0  0  0
   -2.2060   11.3890   -9.0660 C   0  0  0  0  0  0  0  0  0  0  0  0
   -3.6320   11.3250   -9.6170 C   0  0  0  0  0  0  0  0  0  0  0  0
   -6.7940   11.2460   -9.7040 C   0  0  0  0  0  0  0  0  0  0  0  0
   -7.5320   12.3910   -9.0250 C   0  0  0  0  0  0  0  0  0  0  0  0
   -6.6170   13.4220   -8.4280 C   0  0  0  0  0  0  0  0  0  0  0  0
   -1.0700   11.2350   -6.8740 C   0  0  0  0  0  0  0  0  0  0  0  0
   -0.3460   12.4900   -7.2550 C   0  0  0  0  0  0  0  0  0  0  0  0
   -1.1560   13.7950   -6.9930 C   0  0  0  0  0  0  0  0  0  0  0  0
   -0.6890   14.9340   -7.8770 C   0  0  0  0  0  0  0  0  0  0  0  0
   -0.3920   16.1810   -7.0760 C   0  0  0  0  0  0  0  0  0  0  0  0
   -1.7940   15.5640   -5.2220 C   0  0  0  0  0  0  0  0  0  0  0  0
   -1.0990   14.2220   -5.5070 C   0  0  0  0  0  0  0  0  0  0  0  0
   -1.3450   17.9280   -5.7440 C   0  0  0  0  0  0  0  0  0  0  0  0
   -1.6380   18.0770   -4.2570 C   0  0  0  0  0  0  0  0  0  0  0  0
   -2.4860   19.3240   -3.9900 C   0  0  0  0  0  0  0  0  0  0  0  0
   -1.8490   20.2930   -2.9750 C   0  0  0  0  0  0  0  0  0  0  0  0
   -1.4250   19.5870   -1.6870 C   0  0  0  0  0  0  0  0  0  0  0  0
   -0.6140   18.3200   -1.9770 C   0  0  0  0  0  0  0  0  0  0  0  0
   -0.3500   18.1600   -3.4560 C   0  0  0  0  0  0  0  0  0  0  0  0
   -8.4600   13.3840    0.5210 F   0  0  0  0  0  0  0  0  0  0  0  0
   -7.3840    4.9840   -2.7770 F   0  0  0  0  0  0  0  0  0  0  0  0
   -6.0500    6.1370   -1.5950 F   0  0  0  0  0  0  0  0  0  0  0  0
   -5.2820    4.5540   -2.8340 F   0  0  0  0  0  0  0  0  0  0  0  0
   -6.4230    9.7000   -7.8360 N   0  0  0  0  0  0  0  0  0  0  0  0
   -5.8910   10.5240   -8.7880 N   0  0  0  0  0  0  0  0  0  0  0  0
   -1.9680   10.7290   -7.7530 N   0  0  0  0  0  0  0  0  0  0  0  0
   -1.5400   16.5700   -6.2790 N   0  0  0  0  0  0  0  0  0  0  0  0
   -5.8720   14.2400   -9.3850 O   0  0  0  0  0  0  0  0  0  0  0  0
   -0.8580   10.7060   -5.7950 O   0  0  0  0  0  0  0  0  0  0  0  0
   -8.6160    7.4280   -3.5490 S   0  0  0  0  0  0  0  0  0  0  0  0
  2  1  1  0
  4  3  1  0
  5  4  1  0
  5  1  1  0
  6  1  1  0
  7  6  1  0
  9  8  2  0
 10  9  1  0
 11 10  2  0
 12 11  1  0
 13 12  2  0
 13  8  1  0
 14  3  1  0
 14  2  1  0
 15  8  1  0
 16 11  1  0
 18 17  2  0
 18 16  1  0
 19 18  1  0
 21 17  1  0
 21 20  1  0
 23 22  1  0
 24 23  1  0
 26 25  1  0
 27 26  1  0
 28 27  1  0
 29 28  1  0
 31 27  1  0
 31 30  1  0
 33 32  1  0
 34 33  1  0
 35 34  1  0
 36 35  1  0
 37 36  1  0
 38 37  1  0
 38 33  1  0
 39  3  1  0
 40 15  1  0
 41 15  1  0
 42 15  1  0
 43 16  2  0
 44 43  1  0
 44 22  1  0
 44 17  1  0
 45 19  1  0
 45 25  1  0
 45 20  1  0
 46 29  1  0
 46 30  1  0
 46 32  1  0
 47 24  1  0
 48 25  2  0
 49 13  1  0
 49  7  1  0
M  END
$$$$
