
     RDKit          3D

 50 55  0  0  0  0  0  0  0  0999 V2000
   -4.1970    9.8960   -7.5990 N   0  0  0  0  0  0  0  0  0  0  0  0
   -5.3900    9.3660   -7.3180 C   0  0  0  0  0  0  0  0  0  0  0  0
   -6.3720    9.7890   -8.2490 C   0  0  0  0  0  0  0  0  0  0  0  0
   -5.7210   10.6130   -9.1070 C   0  0  0  0  0  0  0  0  0  0  0  0
   -4.4320   10.6660   -8.7070 N   0  0  0  0  0  0  0  0  0  0  0  0
   -6.3480   11.3210  -10.2690 C   0  0  0  0  0  0  0  0  0  0  0  0
  -10.8400    9.4660  -10.0160 C   0  0  0  0  0  0  0  0  0  0  0  0
   -7.8540   11.0740  -10.2640 C   0  0  0  0  0  0  0  0  0  0  0  0
   -7.8330    9.4820   -8.3750 C   0  0  0  0  0  0  0  0  0  0  0  0
   -5.5570    8.4390   -6.1790 C   0  0  0  0  0  0  0  0  0  0  0  0
   -3.3460   11.4290   -9.3200 C   0  0  0  0  0  0  0  0  0  0  0  0
   -3.2350   12.8470   -8.7680 C   0  0  2  0  0  0  0  0  0  0  0  0
   -2.6370   12.8400   -7.3730 C   0  0  0  0  0  0  0  0  0  0  0  0
   -4.5450    7.5600   -5.8310 C   0  0  0  0  0  0  0  0  0  0  0  0
   -4.7160    6.6840   -4.7770 C   0  0  0  0  0  0  0  0  0  0  0  0
   -5.8950    6.6550   -4.0440 C   0  0  0  0  0  0  0  0  0  0  0  0
   -6.9310    7.5350   -4.3920 C   0  0  0  0  0  0  0  0  0  0  0  0
   -6.7550    8.4180   -5.4590 C   0  0  0  0  0  0  0  0  0  0  0  0
   -1.2950   14.7670   -7.8240 C   0  0  0  0  0  0  0  0  0  0  0  0
   -0.8290   16.1450   -7.3590 C   0  0  0  0  0  0  0  0  0  0  0  0
   -0.2980   16.0730   -5.9330 C   0  0  0  0  0  0  0  0  0  0  0  0
   -1.3410   15.4550   -5.0180 C   0  0  0  0  0  0  0  0  0  0  0  0
   -1.7570   14.0920   -5.5510 C   0  0  0  0  0  0  0  0  0  0  0  0
   -6.0430    5.6770   -2.9120 C   0  0  0  0  0  0  0  0  0  0  0  0
   -8.9570    9.2820   -3.4420 C   0  0  0  0  0  0  0  0  0  0  0  0
   -7.8700   10.1100   -2.7800 C   0  0  0  0  0  0  0  0  0  0  0  0
   -9.7640   11.4610   -2.0370 C   0  0  0  0  0  0  0  0  0  0  0  0
  -10.2570   12.4070   -0.9460 C   0  0  0  0  0  0  0  0  0  0  0  0
   -9.4250   13.6790   -0.8750 C   0  0  0  0  0  0  0  0  0  0  0  0
   -7.9520   13.3190   -0.8050 C   0  0  0  0  0  0  0  0  0  0  0  0
   -7.5530   12.3340   -1.8960 C   0  0  0  0  0  0  0  0  0  0  0  0
   -9.8450   14.5750    0.2840 C   0  0  0  0  0  0  0  0  0  0  0  0
    1.5190   17.6200   -4.9390 C   0  0  0  0  0  0  0  0  0  0  0  0
    1.3520   18.8970   -4.1200 C   0  0  2  0  0  0  0  0  0  0  0  0
    0.1970   19.6110   -4.8210 C   0  0  0  0  0  0  0  0  0  0  0  0
   -0.6200   18.4800   -5.3880 C   0  0  0  0  0  0  0  0  0  0  0  0
   -5.9390    6.2350   -1.7090 F   0  0  0  0  0  0  0  0  0  0  0  0
   -7.2230    5.0620   -2.9450 F   0  0  0  0  0  0  0  0  0  0  0  0
   -5.1410    4.7000   -2.9730 F   0  0  0  0  0  0  0  0  0  0  0  0
   -8.1380    9.7010   -9.7970 N   0  0  0  0  0  0  0  0  0  0  0  0
   -2.3010   14.1870   -6.9090 N   0  0  0  0  0  0  0  0  0  0  0  0
   -8.3580   11.1150   -1.8250 N   0  0  0  0  0  0  0  0  0  0  0  0
    0.1620   17.3780   -5.4360 N   0  0  0  0  0  0  0  0  0  0  0  0
   -9.1550    7.5060  -10.1740 O   0  0  0  0  0  0  0  0  0  0  0  0
   -9.1560    9.1880  -11.9620 O   0  0  0  0  0  0  0  0  0  0  0  0
   -4.5110   13.4910   -8.6940 O   0  0  0  0  0  0  0  0  0  0  0  0
   -1.7840   18.5270   -5.7450 O   0  0  0  0  0  0  0  0  0  0  0  0
    2.5140   19.7270   -4.1960 O   0  0  0  0  0  0  0  0  0  0  0  0
   -8.4680    7.5420   -3.4930 S   0  0  0  0  0  0  0  0  0  0  0  0
   -9.2920    8.8690  -10.5780 S   0  0  0  0  0  0  0  0  0  0  0  0
  2  1  2  0
  3  2  1  0
  4  3  2  0
  5  4  1  0
  5  1  1  0
  6  4  1  0
  8  6  1  0
  9  3  1  0
 10  2  1  0
 11  5  1  0
 12 11  1  0
 13 12  1  0
 14 10  2  0
 15 14  1  0
 16 15  2  0
 17 16  1  0
 18 10  1  0
 18 17  2  0
 20 19  1  0
 21 20  1  0
 22 21  1  0
 23 22  1  0
 24 16  1  0
 26 25  1  0
 28 27  1  0
 29 28  1  0
 30 29  1  0
 31 30  1  0
 32 29  1  0
 34 33  1  0
 35 34  1  0
 36 35  1  0
 37 24  1  0
 38 24  1  0
 39 24  1  0
 40  9  1  0
 40  8  1  0
 41 23  1  0
 41 19  1  0
 41 13  1  0
 42 26  1  0
 42 31  1  0
 42 27  1  0
 43 21  1  0
 43 36  1  0
 43 33  1  0
 12 46  1  1
 47 36  2  0
 34 48  1  6
 49 25  1  0
 49 17  1  0
 50 45  2  0
 50 44  2  0
 50 40  1  0
 50  7  1  0
M  END
$$$$
