
     RDKit          3D

 42 45  0  0  0  0  0  0  0  0999 V2000
  -10.4380   10.5550  -12.0470 C   0  0  0  0  0  0  0  0  0  0  0  0
  -11.2530   10.9140  -10.8260 C   0  0  0  0  0  0  0  0  0  0  0  0
  -12.7450   10.9560  -11.1030 C   0  0  0  0  0  0  0  0  0  0  0  0
  -12.1500   12.0290  -13.2400 C   0  0  0  0  0  0  0  0  0  0  0  0
  -10.6990   11.6050  -13.1520 C   0  0  0  0  0  0  0  0  0  0  0  0
   -8.9470   10.4520  -11.7180 C   0  0  0  0  0  0  0  0  0  0  0  0
   -8.6150    9.9050  -10.3450 C   0  0  0  0  0  0  0  0  0  0  0  0
   -7.3590   12.0110   -9.8810 C   0  0  0  0  0  0  0  0  0  0  0  0
   -5.8320   12.0130   -9.9730 C   0  0  0  0  0  0  0  0  0  0  0  0
   -5.2760   11.1180   -8.9100 C   0  0  0  0  0  0  0  0  0  0  0  0
   -6.0070   10.3160   -8.1080 C   0  0  0  0  0  0  0  0  0  0  0  0
   -7.4970   10.2300   -8.2090 C   0  0  0  0  0  0  0  0  0  0  0  0
   -5.0630    9.6660   -7.2710 C   0  0  0  0  0  0  0  0  0  0  0  0
   -2.8070   11.6090   -9.1360 C   0  0  0  0  0  0  0  0  0  0  0  0
   -5.2970    8.6740   -6.2060 C   0  0  0  0  0  0  0  0  0  0  0  0
   -6.3830    8.8270   -5.3550 C   0  0  0  0  0  0  0  0  0  0  0  0
   -6.6440    7.9090   -4.3420 C   0  0  0  0  0  0  0  0  0  0  0  0
   -5.7790    6.8080   -4.1790 C   0  0  0  0  0  0  0  0  0  0  0  0
   -4.7000    6.6600   -5.0390 C   0  0  0  0  0  0  0  0  0  0  0  0
   -4.4580    7.5790   -6.0410 C   0  0  0  0  0  0  0  0  0  0  0  0
   -6.0120    5.7770   -3.1090 C   0  0  0  0  0  0  0  0  0  0  0  0
   -7.8290    8.1230   -3.4270 C   0  0  0  0  0  0  0  0  0  0  0  0
   -8.2750   10.4160   -2.7010 C   0  0  0  0  0  0  0  0  0  0  0  0
   -7.8340   11.5060   -1.8140 C   0  0  0  0  0  0  0  0  0  0  0  0
   -8.5910   12.2920   -1.0400 C   0  0  0  0  0  0  0  0  0  0  0  0
   -7.9820   13.3790   -0.1870 C   0  0  0  0  0  0  0  0  0  0  0  0
  -10.0730   12.1790   -0.9340 C   0  0  0  0  0  0  0  0  0  0  0  0
   -2.5850   12.9970   -8.5500 C   0  0  0  0  0  0  0  0  0  0  0  0
   -2.4870   12.9990   -7.0350 C   0  0  0  0  0  0  0  0  0  0  0  0
   -1.4170   13.9850   -5.1240 C   0  0  0  0  0  0  0  0  0  0  0  0
   -2.8570   15.3130   -6.4810 C   0  0  0  0  0  0  0  0  0  0  0  0
   -6.0100    6.2680   -1.9090 F   0  0  0  0  0  0  0  0  0  0  0  0
   -7.1680    5.1380   -3.2810 F   0  0  0  0  0  0  0  0  0  0  0  0
   -5.0870    4.8260   -3.1030 F   0  0  0  0  0  0  0  0  0  0  0  0
   -7.8740   10.6770   -9.5330 N   0  0  0  0  0  0  0  0  0  0  0  0
   -3.8210   10.0610   -7.5500 N   0  0  0  0  0  0  0  0  0  0  0  0
   -3.9790   10.9590   -8.5740 N   0  0  0  0  0  0  0  0  0  0  0  0
  -13.0200   11.0400  -12.5820 N   0  0  0  0  0  0  0  0  0  0  0  0
   -7.5480    9.3000   -2.6030 N   0  0  0  0  0  0  0  0  0  0  0  0
   -1.8900   14.2200   -6.4790 N   0  0  0  0  0  0  0  0  0  0  0  0
   -9.0050    8.8010   -9.9940 O   0  0  0  0  0  0  0  0  0  0  0  0
   -9.2310   10.5060   -3.4860 O   0  0  0  0  0  0  0  0  0  0  0  0
  2  1  1  0
  3  2  1  0
  5  4  1  0
  5  1  1  0
  6  1  1  0
  7  6  1  0
  9  8  1  0
 10  9  1  0
 11 10  2  0
 12 11  1  0
 13 11  1  0
 15 13  1  0
 16 15  2  0
 17 16  1  0
 18 17  2  0
 19 18  1  0
 20 15  1  0
 20 19  2  0
 21 18  1  0
 22 17  1  0
 24 23  1  0
 25 24  2  0
 26 25  1  0
 27 25  1  0
 28 14  1  0
 29 28  1  0
 32 21  1  0
 33 21  1  0
 34 21  1  0
 35 12  1  0
 35  7  1  0
 35  8  1  0
 36 13  2  0
 37 36  1  0
 37 14  1  0
 37 10  1  0
 38  4  1  0
 38  3  1  0
 39 23  1  0
 39 22  1  0
 40 31  1  0
 40 29  1  0
 40 30  1  0
 41  7  2  0
 42 23  2  0
M  END
$$$$
