
     RDKit          3D

 43 48  0  0  0  0  0  0  0  0999 V2000
   -6.6264    5.3753   -1.6677 F   0  0  0  0  0  0  0  0  0  0  0  0
   -7.5568    5.4737   -2.7107 C   0  0  2  0  0  0  0  0  0  0  0  0
   -8.7155    6.0048   -2.1301 F   0  0  0  0  0  0  0  0  0  0  0  0
   -7.7990    4.2448   -3.2843 F   0  0  0  0  0  0  0  0  0  0  0  0
   -7.0021    6.4538   -3.6866 C   0  0  0  0  0  0  0  0  0  0  0  0
   -7.2680    6.3171   -5.0329 C   0  0  0  0  0  0  0  0  0  0  0  0
   -6.7625    7.2157   -5.9470 C   0  0  0  0  0  0  0  0  0  0  0  0
   -5.9652    8.2972   -5.5623 C   0  0  0  0  0  0  0  0  0  0  0  0
   -5.7119    8.4145   -4.2115 C   0  0  0  0  0  0  0  0  0  0  0  0
   -6.2178    7.5139   -3.2888 C   0  0  0  0  0  0  0  0  0  0  0  0
   -5.4505    9.2184   -6.5705 C   0  0  0  0  0  0  0  0  0  0  0  0
   -4.1896    9.4960   -6.9007 N   0  0  0  0  0  0  0  0  0  0  0  0
   -4.1408   10.4052   -7.8911 N   0  0  0  0  0  0  0  0  0  0  0  0
   -5.3910   10.7294   -8.2162 C   0  0  0  0  0  0  0  0  0  0  0  0
   -6.2371    9.9824   -7.3845 C   0  0  0  0  0  0  0  0  0  0  0  0
   -6.0999   11.6289   -9.1607 C   0  0  0  0  0  0  0  0  0  0  0  0
   -7.1635   10.7946   -9.8550 C   0  0  0  0  0  0  0  0  0  0  0  0
   -8.0119   10.0779   -8.9667 N   0  0  0  0  0  0  0  0  0  0  0  0
   -7.6935   10.1957   -7.5816 C   0  0  0  0  0  0  0  0  0  0  0  0
   -8.2153    8.4193   -9.3548 S   0  0  1  0  0  6  0  0  0  0  0  0
   -9.0789    8.3451  -10.5826 O   0  0  0  0  0  0  0  0  0  0  0  0
   -6.8811    7.7439   -9.6045 O   0  0  0  0  0  0  0  0  0  0  0  0
   -9.0119    7.5073   -8.0550 C   0  0  0  0  0  0  0  0  0  0  0  0
   -2.9575   10.9477   -8.5143 C   0  0  0  0  0  0  0  0  0  0  0  0
   -2.2606   12.0109   -7.7314 C   0  0  1  0  0  0  0  0  0  0  0  0
   -0.9102   11.7224   -7.5273 O   0  0  0  0  0  0  0  0  0  0  0  0
   -2.5158   13.3460   -8.3300 C   0  0  0  0  0  0  0  0  0  0  0  0
   -2.2265   14.4454   -7.4302 N   0  0  1  0  0  4  0  0  0  0  0  0
   -1.2258   14.1527   -6.4530 C   0  0  0  0  0  0  0  0  0  0  0  0
   -0.2013   15.2503   -6.2806 C   0  0  0  0  0  0  0  0  0  0  0  0
   -0.8275   16.6183   -6.1423 C   0  0  1  0  0  0  0  0  0  0  0  0
   -2.0385   16.7790   -7.0382 C   0  0  0  0  0  0  0  0  0  0  0  0
   -1.9136   15.6761   -8.0991 C   0  0  0  0  0  0  0  0  0  0  0  0
   -1.1354   16.9494   -4.7329 C   0  0  0  0  0  0  0  0  0  0  0  0
   -2.2488   16.6500   -3.9713 C   0  0  0  0  0  0  0  0  0  0  0  0
   -2.0896   17.1573   -2.7325 N   0  0  0  0  0  0  0  0  0  0  0  0
   -0.8949   17.7899   -2.6468 C   0  0  0  0  0  0  0  0  0  0  0  0
   -0.2949   17.6597   -3.9028 C   0  0  0  0  0  0  0  0  0  0  0  0
   -0.2358   18.4674   -1.6466 C   0  0  0  0  0  0  0  0  0  0  0  0
    1.0042   19.0156   -1.8724 C   0  0  0  0  0  0  0  0  0  0  0  0
    1.5707   18.8825   -3.0878 N   0  0  0  0  0  4  0  0  0  0  0  0
    2.8114   19.4283   -3.3217 O   0  0  0  0  0  1  0  0  0  0  0  0
    0.9532   18.2307   -4.0743 C   0  0  0  0  0  0  0  0  0  0  0  0
  2  1  1  1
  2  3  1  0
  2  4  1  0
  2  5  1  0
  5  6  2  0
  6  7  1  0
  7  8  2  0
  8  9  1  0
  9 10  2  0
  8 11  1  0
 11 12  2  0
 12 13  1  0
 13 14  1  0
 14 15  2  0
 14 16  1  0
 16 17  1  0
 17 18  1  0
 18 19  1  0
 18 20  1  0
 20 21  2  0
 20 22  2  0
 20 23  1  1
 13 24  1  0
 24 25  1  0
 25 26  1  6
 25 27  1  0
 28 27  1  6
 28 29  1  0
 29 30  1  0
 30 31  1  0
 31 32  1  0
 32 33  1  0
 31 34  1  1
 34 35  2  0
 35 36  1  0
 36 37  1  0
 37 38  2  0
 37 39  1  0
 39 40  2  0
 40 41  1  0
 41 42  1  0
 41 43  2  0
 10  5  1  0
 15 11  1  0
 19 15  1  0
 33 28  1  0
 38 34  1  0
 43 38  1  0
M  CHG  3  28   1  41   1  42  -1
M  END
$$$$
