
     RDKit          3D

 42 46  0  0  0  0  0  0  0  0999 V2000
  -12.5131    5.5948    0.8409 C   0  0  0  0  0  0  0  0  0  0  0  0
  -11.1077    6.0388    1.1660 C   0  0  2  0  0  0  0  0  0  0  0  0
  -10.4257    4.9342    1.9302 C   0  0  0  0  0  0  0  0  0  0  0  0
  -11.1135    7.3243    1.9953 C   0  0  0  0  0  0  0  0  0  0  0  0
  -10.4558    6.3462   -0.0604 O   0  0  0  0  0  0  0  0  0  0  0  0
   -9.0699    6.4274   -0.1394 C   0  0  0  0  0  0  0  0  0  0  0  0
   -8.4852    7.0227    0.8270 O   0  0  0  0  0  0  0  0  0  0  0  0
   -8.3036    5.9073   -1.1901 N   0  0  0  0  0  0  0  0  0  0  0  0
   -8.9266    5.2650   -2.3108 C   0  0  0  0  0  0  0  0  0  0  0  0
   -8.4377    5.9046   -3.5934 C   0  0  0  0  0  0  0  0  0  0  0  0
   -6.9583    6.1001   -3.6435 C   0  0  1  0  0  0  0  0  0  0  0  0
   -6.5766    7.5283   -3.6896 C   0  0  0  0  0  0  0  0  0  0  0  0
   -5.5458    8.0162   -4.5730 C   0  0  0  0  0  0  0  0  0  0  0  0
   -4.3593    7.5185   -4.2526 O   0  0  0  0  0  0  0  0  0  0  0  0
   -5.5265    8.8669   -5.6499 N   0  0  0  0  0  0  0  0  0  0  0  0
   -4.5712    9.0816   -6.6829 C   0  0  0  0  0  0  0  0  0  0  0  0
   -4.7025   10.3845   -7.4574 C   0  0  0  0  0  0  0  0  0  0  0  0
   -5.1485   11.4483   -6.5328 C   0  0  0  0  0  0  0  0  0  0  0  0
   -6.2071   11.1268   -5.6508 C   0  0  0  0  0  0  0  0  0  0  0  0
   -6.7593    9.7363   -5.7667 C   0  0  0  0  0  0  0  0  0  0  0  0
   -6.4272   12.2509   -4.9253 C   0  0  0  0  0  0  0  0  0  0  0  0
   -5.5580   13.1843   -5.3459 N   0  0  0  0  0  0  0  0  0  0  0  0
   -4.7871   12.7199   -6.3076 N   0  0  0  0  0  0  0  0  0  0  0  0
   -3.7144   13.4386   -7.0403 C   0  0  0  0  0  0  0  0  0  0  0  0
   -2.6461   13.7538   -6.0217 C   0  0  0  0  0  0  0  0  0  0  0  0
   -3.0477   14.9983   -5.2508 C   0  0  0  0  0  0  0  0  0  0  0  0
   -2.0911   16.0100   -5.4564 N   0  0  0  0  0  0  0  0  0  0  0  0
   -2.3166   17.2835   -4.8865 C   0  0  0  0  0  0  0  0  0  0  0  0
   -1.1887   18.1935   -5.3433 C   0  0  0  0  0  0  0  0  0  0  0  0
    0.0611   17.7305   -5.0752 O   0  0  0  0  0  0  0  0  0  0  0  0
    0.2976   16.3892   -5.2157 C   0  0  0  0  0  0  0  0  0  0  0  0
   -0.8248   15.7263   -5.9870 C   0  0  0  0  0  0  0  0  0  0  0  0
   -7.4397   12.3963   -3.8802 C   0  0  0  0  0  0  0  0  0  0  0  0
   -8.4596   11.4804   -3.7427 C   0  0  0  0  0  0  0  0  0  0  0  0
   -9.3813   11.6608   -2.7301 C   0  0  0  0  0  0  0  0  0  0  0  0
   -9.2804   12.7541   -1.8606 C   0  0  0  0  0  0  0  0  0  0  0  0
  -10.4237   13.0046   -0.5766 Cl  0  0  0  0  0  0  0  0  0  0  0  0
   -8.2557   13.6644   -2.0082 C   0  0  0  0  0  0  0  0  0  0  0  0
   -8.0646   15.3316   -0.7276 I   0  0  0  0  0  0  0  0  0  0  0  0
   -7.3512   13.4814   -3.0073 C   0  0  0  0  0  0  0  0  0  0  0  0
   -6.2895    5.4226   -2.4323 C   0  0  0  0  0  0  0  0  0  0  0  0
   -6.8631    5.9908   -1.1635 C   0  0  0  0  0  0  0  0  0  0  0  0
  2  1  1  6
  2  3  1  0
  2  4  1  0
  2  5  1  0
  5  6  1  0
  6  7  2  0
  6  8  1  0
  8  9  1  0
  9 10  1  0
 10 11  1  0
 11 12  1  1
 12 13  1  0
 13 14  2  0
 13 15  1  0
 15 16  1  0
 16 17  1  0
 17 18  1  0
 18 19  2  0
 19 20  1  0
 19 21  1  0
 21 22  2  0
 22 23  1  0
 23 24  1  0
 24 25  1  0
 25 26  1  0
 26 27  1  0
 27 28  1  0
 28 29  1  0
 29 30  1  0
 30 31  1  0
 31 32  1  0
 21 33  1  0
 33 34  2  0
 34 35  1  0
 35 36  2  0
 36 37  1  0
 36 38  1  0
 38 39  1  0
 38 40  2  0
 11 41  1  0
 41 42  1  0
 42  8  1  0
 20 15  1  0
 23 18  1  0
 32 27  1  0
 40 33  1  0
M  END
$$$$
