
     RDKit          3D

 47 52  0  0  0  0  0  0  0  0999 V2000
   -7.4681    5.6503   -1.2092 C   0  0  0  0  0  0  0  0  0  0  0  0
   -7.1771    5.9210   -2.9405 S   0  0  2  0  0  6  0  0  0  0  0  0
   -8.3524    6.7117   -3.4667 O   0  0  0  0  0  0  0  0  0  0  0  0
   -7.1804    4.6096   -3.6957 O   0  0  0  0  0  0  0  0  0  0  0  0
   -5.7694    6.8196   -3.1979 N   0  0  0  0  0  0  0  0  0  0  0  0
   -4.9950    6.5084   -4.3359 C   0  0  0  0  0  0  0  0  0  0  0  0
   -5.2953    7.1479   -5.6190 C   0  0  0  0  0  0  0  0  0  0  0  0
   -5.9552    8.4677   -5.4868 C   0  0  0  0  0  0  0  0  0  0  0  0
   -6.2300    8.9568   -4.2160 C   0  0  0  0  0  0  0  0  0  0  0  0
   -5.9286    8.2219   -2.9564 C   0  0  0  0  0  0  0  0  0  0  0  0
   -6.8218   10.1883   -4.3197 C   0  0  0  0  0  0  0  0  0  0  0  0
   -6.9019   10.4337   -5.6249 N   0  0  0  0  0  0  0  0  0  0  0  0
   -6.3789    9.3941   -6.3386 N   0  0  0  0  0  0  0  0  0  0  0  0
   -6.3755    9.4302   -7.7775 C   0  0  0  0  0  0  0  0  0  0  0  0
   -5.0717    9.2904   -8.4439 C   0  0  0  0  0  0  0  0  0  0  0  0
   -4.1336   10.4220   -8.5669 C   0  0  0  0  0  0  0  0  0  0  0  0
   -4.6006   11.6578   -8.9798 N   0  0  0  0  0  0  0  0  0  0  0  0
   -5.3905   11.9835  -10.0560 C   0  0  0  0  0  0  0  0  0  0  0  0
   -4.6730   12.8159  -11.1261 C   0  0  0  0  0  0  0  0  0  0  0  0
   -4.0668   13.9323  -10.5282 O   0  0  0  0  0  0  0  0  0  0  0  0
   -3.0798   13.4501   -9.6743 C   0  0  0  0  0  0  0  0  0  0  0  0
   -3.7467   12.7597   -8.5162 C   0  0  0  0  0  0  0  0  0  0  0  0
   -7.2926   11.0976   -3.2582 C   0  0  0  0  0  0  0  0  0  0  0  0
   -8.1997   10.6959   -2.3058 C   0  0  0  0  0  0  0  0  0  0  0  0
   -8.6214   11.5845   -1.3096 C   0  0  0  0  0  0  0  0  0  0  0  0
   -8.1530   12.8783   -1.2415 C   0  0  0  0  0  0  0  0  0  0  0  0
   -8.6934   13.9871    0.0194 Cl  0  0  0  0  0  0  0  0  0  0  0  0
   -7.2445   13.2709   -2.2001 C   0  0  0  0  0  0  0  0  0  0  0  0
   -6.8302   12.3955   -3.1811 C   0  0  0  0  0  0  0  0  0  0  0  0
   -6.7284   14.6647   -2.1351 C   0  0  0  0  0  0  0  0  0  0  0  0
   -7.5384   15.6075   -2.9823 C   0  0  0  0  0  0  0  0  0  0  0  0
   -6.9214   16.9405   -3.1536 C   0  0  0  0  0  0  0  0  0  0  0  0
   -7.1860   17.6782   -4.2860 C   0  0  0  0  0  0  0  0  0  0  0  0
   -6.5967   18.9172   -4.4244 C   0  0  0  0  0  0  0  0  0  0  0  0
   -5.7413   19.4234   -3.4325 C   0  0  0  0  0  0  0  0  0  0  0  0
   -5.0882   21.0317   -3.6823 Cl  0  0  0  0  0  0  0  0  0  0  0  0
   -5.4638   18.7062   -2.2999 C   0  0  0  0  0  0  0  0  0  0  0  0
   -6.0838   17.4499   -2.1954 C   0  0  0  0  0  0  0  0  0  0  0  0
   -4.5442   19.1779   -1.2562 C   0  0  0  0  0  0  0  0  0  0  0  0
   -5.0823   19.5414   -0.0118 N   0  0  0  0  0  0  0  0  0  0  0  0
   -5.8658   20.7005    0.1300 C   0  0  0  0  0  0  0  0  0  0  0  0
   -7.2977   20.3020    0.1559 C   0  0  0  0  0  0  0  0  0  0  0  0
   -7.6625   19.1622    0.8240 C   0  0  0  0  0  0  0  0  0  0  0  0
   -9.0006   18.7515    0.8708 C   0  0  0  0  0  0  0  0  0  0  0  0
   -9.9617   19.5081    0.2340 C   0  0  0  0  0  0  0  0  0  0  0  0
   -9.6043   20.6390   -0.4299 C   0  0  0  0  0  0  0  0  0  0  0  0
   -8.2643   21.0437   -0.4724 C   0  0  0  0  0  0  0  0  0  0  0  0
  2  1  1  1
  2  3  2  0
  2  4  2  0
  2  5  1  0
  5  6  1  0
  6  7  1  0
  7  8  1  0
  8  9  2  0
  9 10  1  0
  9 11  1  0
 11 12  2  0
 12 13  1  0
 13 14  1  0
 14 15  1  0
 15 16  1  0
 16 17  1  0
 17 18  1  0
 18 19  1  0
 19 20  1  0
 20 21  1  0
 21 22  1  0
 11 23  1  0
 23 24  2  0
 24 25  1  0
 25 26  2  0
 26 27  1  0
 26 28  1  0
 28 29  2  0
 28 30  1  0
 30 31  1  0
 31 32  1  0
 32 33  2  0
 33 34  1  0
 34 35  2  0
 35 36  1  0
 35 37  1  0
 37 38  2  0
 37 39  1  0
 39 40  1  0
 40 41  1  0
 41 42  1  0
 42 43  2  0
 43 44  1  0
 44 45  2  0
 45 46  1  0
 46 47  2  0
 10  5  1  0
 13  8  1  0
 22 17  1  0
 29 23  1  0
 38 32  1  0
 47 42  1  0
M  END
$$$$
