
     RDKit          3D

 46 51  0  0  0  0  0  0  0  0999 V2000
  -14.4140    0.3577    1.3968 C   0  0  0  0  0  0  0  0  0  0  0  0
  -14.2528   -0.6214    0.2645 C   0  0  0  0  0  0  0  0  0  0  0  0
  -13.5509   -0.0872   -0.9376 C   0  0  0  0  0  0  0  0  0  0  0  0
  -13.8974    1.3123   -1.3221 C   0  0  0  0  0  0  0  0  0  0  0  0
  -14.7513    2.0055   -0.2778 C   0  0  0  0  0  0  0  0  0  0  0  0
  -14.2156    1.7221    1.0493 N   0  0  2  0  0  4  0  0  0  0  0  0
  -12.8624    2.1334    1.1850 C   0  0  0  0  0  0  0  0  0  0  0  0
  -12.4530    2.4335    2.6390 C   0  0  0  0  0  0  0  0  0  0  0  0
  -13.4224    3.6631    3.3950 S   0  0  0  0  0  0  0  0  0  0  0  0
  -13.1574    5.3527    3.2492 C   0  0  0  0  0  0  0  0  0  0  0  0
  -12.4678    5.8031    2.0837 C   0  0  0  0  0  0  0  0  0  0  0  0
  -12.2246    7.0854    1.7779 C   0  0  0  0  0  0  0  0  0  0  0  0
  -12.6823    8.0514    2.6688 C   0  0  0  0  0  0  0  0  0  0  0  0
  -13.3492    7.6566    3.7990 C   0  0  0  0  0  0  0  0  0  0  0  0
  -13.6018    6.3153    4.1160 C   0  0  0  0  0  0  0  0  0  0  0  0
  -14.3403    6.0400    5.3809 C   0  0  2  0  0  0  0  0  0  0  0  0
  -13.6926    4.9865    6.0722 F   0  0  0  0  0  0  0  0  0  0  0  0
  -15.5906    5.5060    5.1348 F   0  0  0  0  0  0  0  0  0  0  0  0
  -14.2912    7.1038    6.2065 F   0  0  0  0  0  0  0  0  0  0  0  0
  -11.5102    7.5530    0.5813 C   0  0  0  0  0  0  0  0  0  0  0  0
  -10.7808    6.7548   -0.1876 N   0  0  0  0  0  0  0  0  0  0  0  0
  -10.2519    7.4283   -1.2098 N   0  0  0  0  0  0  0  0  0  0  0  0
  -10.6618    8.7065   -1.0856 C   0  0  0  0  0  0  0  0  0  0  0  0
  -11.4698    8.8041    0.0568 C   0  0  0  0  0  0  0  0  0  0  0  0
  -10.3485    9.8758   -1.9512 C   0  0  0  0  0  0  0  0  0  0  0  0
  -11.3144   10.9858   -1.5812 C   0  0  0  0  0  0  0  0  0  0  0  0
  -11.3492   11.1610   -0.1421 N   0  0  0  0  0  4  0  0  0  0  0  0
  -12.1056   10.0774    0.4837 C   0  0  0  0  0  0  0  0  0  0  0  0
   -9.4065    6.8329   -2.2295 C   0  0  0  0  0  0  0  0  0  0  0  0
   -7.9466    6.8646   -1.9096 C   0  0  1  0  0  0  0  0  0  0  0  0
   -7.5463    5.7894   -1.1182 O   0  0  0  0  0  0  0  0  0  0  0  0
   -7.1419    6.7943   -3.1895 C   0  0  0  0  0  0  0  0  0  0  0  0
   -7.6894    7.5419   -4.2709 N   0  0  1  0  0  4  0  0  0  0  0  0
   -7.4924    8.9741   -4.1279 C   0  0  0  0  0  0  0  0  0  0  0  0
   -6.1026    9.4390   -4.3311 C   0  0  0  0  0  0  0  0  0  0  0  0
   -5.1042    8.4217   -4.7598 C   0  0  1  0  0  0  0  0  0  0  0  0
   -5.6600    7.3138   -5.5764 C   0  0  0  0  0  0  0  0  0  0  0  0
   -7.1518    7.1658   -5.5397 C   0  0  0  0  0  0  0  0  0  0  0  0
   -3.9334    9.0086   -5.4462 C   0  0  0  0  0  0  0  0  0  0  0  0
   -2.6825    8.5407   -5.1248 C   0  0  0  0  0  0  0  0  0  0  0  0
   -2.5230    7.5316   -4.1864 O   0  0  0  0  0  0  0  0  0  0  0  0
   -2.1805    7.7827   -2.8393 C   0  0  0  0  0  0  0  0  0  0  0  0
   -1.5164    9.0384   -5.7077 C   0  0  0  0  0  0  0  0  0  0  0  0
   -1.6018   10.0417   -6.6479 C   0  0  0  0  0  0  0  0  0  0  0  0
   -2.8594   10.4971   -6.9568 C   0  0  0  0  0  0  0  0  0  0  0  0
   -4.0136   10.0008   -6.3761 C   0  0  0  0  0  0  0  0  0  0  0  0
  1  2  1  0
  2  3  1  0
  3  4  1  0
  4  5  1  0
  5  6  1  0
  6  7  1  6
  7  8  1  0
  8  9  1  0
  9 10  1  0
 10 11  2  0
 11 12  1  0
 12 13  2  0
 13 14  1  0
 14 15  2  0
 15 16  1  0
 16 17  1  1
 16 18  1  0
 16 19  1  0
 12 20  1  0
 20 21  2  0
 21 22  1  0
 22 23  1  0
 23 24  2  0
 23 25  1  0
 25 26  1  0
 26 27  1  0
 27 28  1  0
 22 29  1  0
 29 30  1  0
 30 31  1  1
 30 32  1  0
 33 32  1  1
 33 34  1  0
 34 35  1  0
 35 36  1  0
 36 37  1  0
 37 38  1  0
 36 39  1  6
 39 40  2  0
 40 41  1  0
 41 42  1  0
 40 43  1  0
 43 44  2  0
 44 45  1  0
 45 46  2  0
  6  1  1  0
 15 10  1  0
 24 20  1  0
 28 24  1  0
 38 33  1  0
 46 39  1  0
M  CHG  3   6   1  27   1  33   1
M  END
$$$$
