
     RDKit          3D

 49 55  0  0  0  0  0  0  0  0999 V2000
   -3.0054   11.1924  -13.8220 C   0  0  0  0  0  0  0  0  0  0  0  0
   -1.4367   11.2782  -13.0532 S   0  0  2  0  0  6  0  0  0  0  0  0
   -0.5178   12.0617  -13.9799 O   0  0  0  0  0  0  0  0  0  0  0  0
   -0.8259    9.9137  -12.8975 O   0  0  0  0  0  0  0  0  0  0  0  0
   -1.4504   12.0656  -11.5237 N   0  0  0  0  0  0  0  0  0  0  0  0
   -1.4936   13.4855  -11.6246 C   0  0  0  0  0  0  0  0  0  0  0  0
   -2.8399   14.0607  -11.1945 C   0  0  0  0  0  0  0  0  0  0  0  0
   -3.0534   13.6455   -9.7729 C   0  0  0  0  0  0  0  0  0  0  0  0
   -2.7471   12.3047   -9.4737 C   0  0  0  0  0  0  0  0  0  0  0  0
   -2.2799   11.4349  -10.5659 C   0  0  0  0  0  0  0  0  0  0  0  0
   -2.9707   12.0884   -8.1401 C   0  0  0  0  0  0  0  0  0  0  0  0
   -3.3996   13.2666   -7.6532 N   0  0  0  0  0  0  0  0  0  0  0  0
   -3.4456   14.1894   -8.6394 N   0  0  0  0  0  0  0  0  0  0  0  0
   -3.8908   15.5356   -8.3574 C   0  0  0  0  0  0  0  0  0  0  0  0
   -4.2819   15.6320   -6.9075 C   0  0  0  0  0  0  0  0  0  0  0  0
   -3.1326   16.0675   -6.0507 C   0  0  0  0  0  0  0  0  0  0  0  0
   -3.2181   17.4608   -5.6896 N   0  0  0  0  0  0  0  0  0  0  0  0
   -4.4268   17.7261   -4.9119 C   0  0  0  0  0  0  0  0  0  0  0  0
   -4.1240   18.8868   -3.9889 C   0  0  0  0  0  0  0  0  0  0  0  0
   -3.2854   18.5205   -2.9319 O   0  0  0  0  0  0  0  0  0  0  0  0
   -2.4343   17.4890   -3.3881 C   0  0  0  0  0  0  0  0  0  0  0  0
   -2.0863   17.8243   -4.8458 C   0  0  0  0  0  0  0  0  0  0  0  0
   -2.7885   10.8673   -7.3635 C   0  0  0  0  0  0  0  0  0  0  0  0
   -1.5637   10.2365   -7.2819 C   0  0  0  0  0  0  0  0  0  0  0  0
   -1.4098    9.1015   -6.5331 C   0  0  0  0  0  0  0  0  0  0  0  0
   -2.4973    8.5973   -5.8601 C   0  0  0  0  0  0  0  0  0  0  0  0
   -2.3172    7.1369   -4.8900 Cl  0  0  0  0  0  0  0  0  0  0  0  0
   -3.7504    9.1755   -5.8956 C   0  0  0  0  0  0  0  0  0  0  0  0
   -4.8907    8.6845   -5.1752 C   0  0  0  0  0  0  0  0  0  0  0  0
   -5.8628    8.2652   -4.5761 C   0  0  0  0  0  0  0  0  0  0  0  0
   -6.9918    7.7731   -3.8516 C   0  0  0  0  0  0  0  0  0  0  0  0
   -8.2732    8.1651   -4.2264 C   0  0  0  0  0  0  0  0  0  0  0  0
   -9.3999    7.7443   -3.5418 C   0  0  0  0  0  0  0  0  0  0  0  0
   -9.2768    6.9155   -2.4582 C   0  0  0  0  0  0  0  0  0  0  0  0
  -10.4754    6.4672   -1.6790 C   0  0  0  0  0  0  0  0  0  0  0  0
  -10.0492    6.3191   -0.2096 C   0  0  2  0  0  0  0  0  0  0  0  0
   -9.0570    5.2513   -0.2403 N   0  0  0  0  0  0  0  0  0  0  0  0
   -7.8336    5.6170   -0.8945 C   0  0  0  0  0  0  0  0  0  0  0  0
   -7.9998    6.5066   -2.0622 C   0  0  0  0  0  0  0  0  0  0  0  0
   -6.8973    6.9318   -2.7506 C   0  0  0  0  0  0  0  0  0  0  0  0
  -11.2123    5.8471    0.5624 C   0  0  0  0  0  0  0  0  0  0  0  0
  -11.8113    4.7580    0.2536 O   0  0  0  0  0  0  0  0  0  0  0  0
  -11.7236    6.5699    1.6860 N   0  0  0  0  0  0  0  0  0  0  0  0
  -11.0903    7.8236    2.1033 C   0  0  0  0  0  0  0  0  0  0  0  0
  -12.0875    8.9669    1.9486 C   0  0  0  0  0  0  0  0  0  0  0  0
  -13.4929    8.3980    1.8048 C   0  0  0  0  0  0  0  0  0  0  0  0
  -13.7497    7.2949    2.7757 C   0  0  0  0  0  0  0  0  0  0  0  0
  -12.8633    6.1079    2.4258 C   0  0  0  0  0  0  0  0  0  0  0  0
   -3.8611   10.3226   -6.6670 C   0  0  0  0  0  0  0  0  0  0  0  0
  2  1  1  6
  2  3  2  0
  2  4  2  0
  2  5  1  0
  5  6  1  0
  6  7  1  0
  7  8  1  0
  8  9  2  0
  9 10  1  0
  9 11  1  0
 11 12  2  0
 12 13  1  0
 13 14  1  0
 14 15  1  0
 15 16  1  0
 16 17  1  0
 17 18  1  0
 18 19  1  0
 19 20  1  0
 20 21  1  0
 21 22  1  0
 11 23  1  0
 23 24  2  0
 24 25  1  0
 25 26  2  0
 26 27  1  0
 26 28  1  0
 28 29  1  0
 29 30  3  0
 30 31  1  0
 31 32  2  0
 32 33  1  0
 33 34  2  0
 34 35  1  0
 35 36  1  0
 36 37  1  0
 37 38  1  0
 38 39  1  0
 39 40  2  0
 36 41  1  1
 41 42  2  0
 41 43  1  0
 43 44  1  0
 44 45  1  0
 45 46  1  0
 46 47  1  0
 47 48  1  0
 28 49  2  0
 10  5  1  0
 13  8  1  0
 22 17  1  0
 49 23  1  0
 40 31  1  0
 39 34  1  0
 48 43  1  0
M  END
$$$$
