
     RDKit          3D

 46 51  0  0  0  0  0  0  0  0999 V2000
   -3.5515   20.8204   -1.6204 C   0  0  0  0  0  0  0  0  0  0  0  0
   -2.8750   19.8325   -2.4377 N   0  0  0  0  0  0  0  0  0  0  0  0
   -3.4479   18.9927   -3.3365 C   0  0  0  0  0  0  0  0  0  0  0  0
   -4.6942   18.9976   -3.5547 O   0  0  0  0  0  0  0  0  0  0  0  0
   -2.5029   18.2194   -3.9007 N   0  0  0  0  0  0  0  0  0  0  0  0
   -1.3286   18.5745   -3.3538 C   0  0  0  0  0  0  0  0  0  0  0  0
   -0.0307   18.1447   -3.5293 C   0  0  0  0  0  0  0  0  0  0  0  0
    1.0316   18.6799   -2.8318 C   0  0  0  0  0  0  0  0  0  0  0  0
    2.6712   18.0989   -3.0884 Cl  0  0  0  0  0  0  0  0  0  0  0  0
    0.8072   19.6869   -1.9168 C   0  0  0  0  0  0  0  0  0  0  0  0
   -0.4824   20.1184   -1.7382 C   0  0  0  0  0  0  0  0  0  0  0  0
   -1.5482   19.5812   -2.4386 C   0  0  0  0  0  0  0  0  0  0  0  0
   -2.6939   17.2009   -4.9018 C   0  0  1  0  0  0  0  0  0  0  0  0
   -2.0396   15.8883   -4.5278 C   0  0  0  0  0  0  0  0  0  0  0  0
   -2.1716   14.9684   -5.7267 C   0  0  0  0  0  0  0  0  0  0  0  0
   -3.5224   14.7567   -6.1188 N   0  0  0  0  0  0  0  0  0  0  0  0
   -3.5574   14.0095   -7.3529 C   0  0  0  0  0  0  0  0  0  0  0  0
   -2.6603   12.7911   -7.3144 C   0  0  0  0  0  0  0  0  0  0  0  0
   -3.4845   11.6222   -7.7599 C   0  0  0  0  0  0  0  0  0  0  0  0
   -3.2227   10.4970   -6.8842 N   0  0  0  0  0  0  0  0  0  0  0  0
   -1.9749   10.1774   -6.5217 N   0  0  0  0  0  0  0  0  0  0  0  0
   -1.6886    9.1490   -5.7121 C   0  0  0  0  0  0  0  0  0  0  0  0
   -2.6666    8.3397   -5.1906 C   0  0  0  0  0  0  0  0  0  0  0  0
   -3.9831    8.6526   -5.5551 C   0  0  0  0  0  0  0  0  0  0  0  0
   -4.1941    9.7182   -6.3857 C   0  0  0  0  0  0  0  0  0  0  0  0
   -5.3828    9.9903   -6.7070 O   0  0  0  0  0  0  0  0  0  0  0  0
   -5.0920    7.8453   -5.0522 C   0  0  0  0  0  0  0  0  0  0  0  0
   -5.0093    6.4768   -5.1744 C   0  0  0  0  0  0  0  0  0  0  0  0
   -6.0252    5.6565   -4.7216 C   0  0  0  0  0  0  0  0  0  0  0  0
   -7.1389    6.2181   -4.1382 C   0  0  0  0  0  0  0  0  0  0  0  0
   -8.4751    5.2397   -3.5376 Cl  0  0  0  0  0  0  0  0  0  0  0  0
   -7.2610    7.6036   -3.9957 C   0  0  0  0  0  0  0  0  0  0  0  0
   -6.2187    8.3720   -4.4648 C   0  0  0  0  0  0  0  0  0  0  0  0
   -8.4887    8.1787   -3.3632 C   0  0  0  0  0  0  0  0  0  0  0  0
   -8.1879    9.2666   -2.4506 N   0  0  0  0  0  0  0  0  0  0  0  0
   -8.1351   10.5923   -2.9041 C   0  0  0  0  0  0  0  0  0  0  0  0
   -8.2924   10.8052   -4.1471 O   0  0  0  0  0  0  0  0  0  0  0  0
   -7.9090   11.6781   -1.9817 C   0  0  0  0  0  0  0  0  0  0  0  0
   -7.0567   12.7111   -2.2437 C   0  0  0  0  0  0  0  0  0  0  0  0
   -6.8677   13.7446   -1.3185 C   0  0  0  0  0  0  0  0  0  0  0  0
   -7.5576   13.7039   -0.1346 C   0  0  0  0  0  0  0  0  0  0  0  0
   -7.4009   14.6927    0.7915 F   0  0  0  0  0  0  0  0  0  0  0  0
   -8.4266   12.6743    0.1613 C   0  0  0  0  0  0  0  0  0  0  0  0
   -8.5866   11.6725   -0.7769 C   0  0  0  0  0  0  0  0  0  0  0  0
   -4.2699   15.9782   -6.3246 C   0  0  0  0  0  0  0  0  0  0  0  0
   -4.1608   16.9135   -5.1431 C   0  0  0  0  0  0  0  0  0  0  0  0
  1  2  1  0
  2  3  1  0
  3  4  2  0
  3  5  1  0
  5  6  1  0
  6  7  2  0
  7  8  1  0
  8  9  1  0
  8 10  2  0
 10 11  1  0
 11 12  2  0
 13  5  1  1
 13 14  1  0
 14 15  1  0
 15 16  1  0
 16 17  1  0
 17 18  1  0
 18 19  1  0
 19 20  1  0
 20 21  1  0
 21 22  2  0
 22 23  1  0
 23 24  2  0
 24 25  1  0
 25 26  2  0
 24 27  1  0
 27 28  2  0
 28 29  1  0
 29 30  2  0
 30 31  1  0
 30 32  1  0
 32 33  2  0
 32 34  1  0
 34 35  1  0
 35 36  1  0
 36 37  2  0
 36 38  1  0
 38 39  2  0
 39 40  1  0
 40 41  2  0
 41 42  1  0
 41 43  1  0
 43 44  2  0
 16 45  1  0
 45 46  1  0
 12  2  1  0
 12  6  1  0
 46 13  1  0
 25 20  1  0
 33 27  1  0
 44 38  1  0
M  END
$$$$
