
     RDKit          3D

 50 55  0  0  0  0  0  0  0  0999 V2000
   -1.6715   18.3039   -2.8730 C   0  0  0  0  0  0  0  0  0  0  0  0
   -2.9552   17.8150   -3.5360 C   0  0  1  0  0  0  0  0  0  0  0  0
   -3.0182   16.3018   -3.5654 C   0  0  0  0  0  0  0  0  0  0  0  0
   -4.4026   15.8625   -3.9261 C   0  0  0  0  0  0  0  0  0  0  0  0
   -5.2333   16.9519   -4.3253 N   0  0  0  0  0  0  0  0  0  0  0  0
   -6.4384   16.5131   -4.9760 C   0  0  0  0  0  0  0  0  0  0  0  0
   -7.2656   15.5938   -4.1571 C   0  0  0  0  0  0  0  0  0  0  0  0
   -7.9527   16.2805   -2.6439 S   0  0  0  0  0  0  0  0  0  0  0  0
   -8.5975   14.9834   -1.6209 C   0  0  0  0  0  0  0  0  0  0  0  0
   -8.5852   13.6670   -2.1248 C   0  0  0  0  0  0  0  0  0  0  0  0
   -9.0214   12.6126   -1.3718 C   0  0  0  0  0  0  0  0  0  0  0  0
   -9.4737   12.8947   -0.0990 C   0  0  0  0  0  0  0  0  0  0  0  0
   -9.4931   14.1713    0.4101 C   0  0  0  0  0  0  0  0  0  0  0  0
   -9.0467   15.2634   -0.3533 C   0  0  0  0  0  0  0  0  0  0  0  0
   -9.0495   16.6078    0.2332 C   0  0  2  0  0  0  0  0  0  0  0  0
  -10.2402   16.7740    0.9566 F   0  0  0  0  0  0  0  0  0  0  0  0
   -8.9766   17.5781   -0.7079 F   0  0  0  0  0  0  0  0  0  0  0  0
   -8.0340   16.7099    1.1586 F   0  0  0  0  0  0  0  0  0  0  0  0
   -9.0166   11.2430   -1.8689 C   0  0  0  0  0  0  0  0  0  0  0  0
   -8.0167   10.5399   -2.4283 N   0  0  0  0  0  0  0  0  0  0  0  0
   -8.4434    9.3074   -2.7453 N   0  0  0  0  0  0  0  0  0  0  0  0
   -7.6391    8.3015   -3.3643 C   0  0  0  0  0  0  0  0  0  0  0  0
   -7.4097    7.0687   -2.5276 C   0  0  1  0  0  0  0  0  0  0  0  0
   -7.8300    5.9105   -3.1684 O   0  0  0  0  0  0  0  0  0  0  0  0
   -5.9219    7.0326   -2.2281 C   0  0  0  0  0  0  0  0  0  0  0  0
   -5.1356    7.3020   -3.3846 N   0  0  0  0  0  0  0  0  0  0  0  0
   -3.8461    6.7112   -3.3816 C   0  0  0  0  0  0  0  0  0  0  0  0
   -3.5000    5.9673   -4.6162 C   0  0  0  0  0  0  0  0  0  0  0  0
   -3.8222    6.6247   -5.9152 C   0  0  1  0  0  0  0  0  0  0  0  0
   -4.9161    7.6640   -5.7919 C   0  0  0  0  0  0  0  0  0  0  0  0
   -5.8302    7.3580   -4.6228 C   0  0  0  0  0  0  0  0  0  0  0  0
   -2.6538    7.2702   -6.4533 N   0  0  0  0  0  0  0  0  0  0  0  0
   -2.1929    8.5947   -6.1025 C   0  0  0  0  0  0  0  0  0  0  0  0
   -1.7553    9.1334   -7.4358 C   0  0  1  0  0  0  0  0  0  0  0  0
   -0.7850   10.1461   -7.2823 O   0  0  0  0  0  0  0  0  0  0  0  0
   -1.1263    7.9311   -8.0853 C   0  0  0  0  0  0  0  0  0  0  0  0
   -1.7547    6.7445   -7.4046 C   0  0  0  0  0  0  0  0  0  0  0  0
   -1.4754    5.5635   -7.6888 O   0  0  0  0  0  0  0  0  0  0  0  0
   -9.7204    9.1683   -2.4064 C   0  0  0  0  0  0  0  0  0  0  0  0
  -10.7775    8.0982   -2.4784 C   0  0  0  0  0  0  0  0  0  0  0  0
  -12.0180    8.8186   -2.9634 C   0  0  0  0  0  0  0  0  0  0  0  0
  -12.4389    9.9065   -2.1649 N   0  0  0  0  0  0  0  0  0  0  0  0
  -11.4884   10.5662   -1.3510 C   0  0  0  0  0  0  0  0  0  0  0  0
  -10.1053   10.3834   -1.8482 C   0  0  0  0  0  0  0  0  0  0  0  0
  -13.4543   11.0218   -2.9530 S   0  0  2  0  0  6  0  0  0  0  0  0
  -13.8196   12.3228   -1.7733 C   0  0  0  0  0  0  0  0  0  0  0  0
  -14.7246   10.4464   -3.4520 O   0  0  0  0  0  0  0  0  0  0  0  0
  -12.6571   11.6834   -4.0560 O   0  0  0  0  0  0  0  0  0  0  0  0
   -5.3901   18.0082   -3.3849 C   0  0  0  0  0  0  0  0  0  0  0  0
   -4.1070   18.3333   -2.6958 C   0  0  0  0  0  0  0  0  0  0  0  0
  2  1  1  1
  2  3  1  0
  3  4  1  0
  4  5  1  0
  5  6  1  0
  6  7  1  0
  7  8  1  0
  8  9  1  0
  9 10  2  0
 10 11  1  0
 11 12  2  0
 12 13  1  0
 13 14  2  0
 14 15  1  0
 15 16  1  1
 15 17  1  0
 15 18  1  0
 11 19  1  0
 19 20  2  0
 20 21  1  0
 21 22  1  0
 22 23  1  0
 23 24  1  6
 23 25  1  0
 25 26  1  0
 26 27  1  0
 27 28  1  0
 28 29  1  0
 29 30  1  0
 30 31  1  0
 29 32  1  1
 32 33  1  0
 33 34  1  0
 34 35  1  1
 34 36  1  0
 36 37  1  0
 37 38  2  0
 21 39  1  0
 39 40  1  0
 40 41  1  0
 41 42  1  0
 42 43  1  0
 43 44  1  0
 42 45  1  0
 45 46  1  1
 45 47  2  0
 45 48  2  0
  5 49  1  0
 49 50  1  0
 50  2  1  0
 14  9  1  0
 44 19  1  0
 31 26  1  0
 37 32  1  0
 44 39  2  0
M  END
$$$$
